144
-2803.58599
O     0.799000000    -1.052000000     4.851000000
H     1.670000000    -0.915000000     4.478000000
H     0.221000000    -1.119000000     4.091000000
O    -4.952000000     0.880000000     2.853000000
H    -4.237000000     0.698000000     3.462000000
H    -4.862000000     0.213000000     2.172000000
O    -3.462000000    -1.103000000    -5.689000000
H    -2.584000000    -1.477000000    -5.762000000
H    -3.908000000    -1.661000000    -5.052000000
O    -1.833000000    -3.763000000     0.448000000
H    -1.054000000    -3.895000000     0.988000000
H    -2.277000000    -3.015000000     0.847000000
O    -0.920000000     3.987000000    -3.050000000
H    -0.117000000     4.408000000    -3.358000000
H    -1.061000000     3.264000000    -3.661000000
O     1.794000000     3.755000000     4.361000000
H     2.620000000     3.844000000     4.836000000
H     1.938000000     3.018000000     3.767000000
O     5.788000000    -0.929000000     3.903000000
H     5.203000000    -1.598000000     3.548000000
H     5.613000000    -0.933000000     4.844000000
O    -7.100000000     1.410000000    -1.078000000
H    -7.854000000     1.553000000    -1.650000000
H    -6.345000000     1.433000000    -1.667000000
O     4.822000000    -3.355000000     5.669000000
H     4.333000000    -3.165000000     4.869000000
H     5.737000000    -3.204000000     5.433000000
O    -2.298000000    -3.462000000     3.328000000
H    -3.222000000    -3.240000000     3.213000000
H    -1.825000000    -2.741000000     2.912000000
O     0.800000000     5.553000000     2.658000000
H     1.124000000     5.206000000     1.827000000
H     0.884000000     4.823000000     3.272000000
O    -0.114000000     5.331000000    -0.855000000
H    -0.585000000     4.853000000    -1.537000000
H     0.563000000     4.721000000    -0.559000000
O    -0.317000000    -1.010000000    -5.244000000
H     0.031000000    -1.750000000    -5.742000000
H     0.009000000    -1.146000000    -4.355000000
O     3.620000000    -2.399000000    -1.933000000
H     4.148000000    -1.949000000    -1.274000000
H     3.625000000    -1.809000000    -2.687000000
O     3.278000000    -4.136000000     1.530000000
H     3.382000000    -5.084000000     1.608000000
H     4.057000000    -3.848000000     1.055000000
O    -3.681000000    -5.362000000    -0.873000000
H    -3.784000000    -6.222000000    -0.464000000
H    -3.044000000    -4.909000000    -0.320000000
O    -3.863000000     4.375000000     4.725000000
H    -3.204000000     3.923000000     4.199000000
H    -3.633000000     5.301000000     4.653000000
O     4.412000000     4.129000000     6.260000000
H     4.640000000     3.322000000     5.798000000
H     4.859000000     4.058000000     7.103000000
O     6.090000000     2.856000000     2.133000000
H     6.910000000     2.486000000     2.461000000
H     5.678000000     2.136000000     1.654000000
O    -5.987000000    -0.819000000     0.680000000
H    -6.586000000    -1.317000000     1.235000000
H    -6.538000000    -0.485000000    -0.028000000
O     7.947000000     0.582000000     2.612000000
H     8.154000000     0.929000000     3.480000000
H     7.332000000    -0.132000000     2.779000000
O     5.218000000     0.381000000     1.141000000
H     4.713000000     0.303000000     0.332000000
H     4.582000000     0.220000000     1.838000000
O    -4.688000000     1.682000000    -2.580000000
H    -4.596000000     0.752000000    -2.783000000
H    -4.291000000     1.779000000    -1.714000000
O     1.735000000     3.800000000     0.629000000
H     1.952000000     3.310000000     1.422000000
H     2.297000000     3.423000000    -0.047000000
O    -2.111000000     1.965000000    -4.530000000
H    -2.013000000     1.254000000    -5.163000000
H    -2.988000000     1.844000000    -4.167000000
O     3.448000000    -2.465000000     3.614000000
H     3.240000000    -3.104000000     2.933000000
H     3.422000000    -1.620000000     3.166000000
O    -5.096000000    -0.929000000    -3.299000000
H    -5.975000000    -0.770000000    -3.643000000
H    -5.103000000    -1.851000000    -3.042000000
O    -1.893000000     2.977000000     2.869000000
H    -1.068000000     3.427000000     3.047000000
H    -2.255000000     3.433000000     2.109000000
O    -2.299000000     4.311000000     0.548000000
H    -2.526000000     5.225000000     0.714000000
H    -1.779000000     4.335000000    -0.256000000
O     5.068000000     5.262000000     0.329000000
H     4.462000000     4.791000000    -0.244000000
H     5.542000000     4.573000000     0.794000000
O    -3.491000000    -1.648000000     1.414000000
H    -3.940000000    -2.216000000     2.040000000
H    -4.139000000    -1.490000000     0.727000000
O    -4.104000000     2.188000000     0.066000000
H    -3.372000000     2.786000000     0.218000000
H    -4.388000000     1.930000000     0.942000000
O     3.727000000     0.624000000    -1.363000000
H     2.919000000     0.200000000    -1.654000000
H     3.642000000     1.530000000    -1.661000000
O     0.632000000    -4.248000000     1.666000000
H     0.511000000    -4.133000000     2.608000000
H     1.470000000    -3.825000000     1.479000000
O     1.542000000    -4.510000000    -1.239000000
H     0.894000000    -4.172000000    -0.621000000
H     2.085000000    -3.752000000    -1.455000000
O    -2.876000000     0.304000000     4.705000000
H    -2.037000000     0.330000000     4.246000000
H    -2.679000000     0.628000000     5.584000000
O    -0.519000000    -5.519000000    -3.272000000
H    -0.641000000    -5.882000000    -2.395000000
H     0.417000000    -5.328000000    -3.325000000
O    -4.823000000    -3.597000000    -2.665000000
H    -4.524000000    -4.202000000    -1.986000000
H    -5.778000000    -3.617000000    -2.599000000
O     4.223000000     1.872000000     4.450000000
H     4.539000000     1.015000000     4.162000000
H     3.495000000     2.069000000     3.859000000
O    -1.239000000    -0.945000000     2.646000000
H    -0.667000000    -0.248000000     2.323000000
H    -1.917000000    -1.028000000     1.975000000
O     3.085000000    -0.918000000    -4.215000000
H     3.071000000    -0.419000000    -5.031000000
H     2.802000000    -1.797000000    -4.466000000
O    -2.701000000    -4.265000000    -4.514000000
H    -1.972000000    -4.711000000    -4.082000000
H    -3.296000000    -4.032000000    -3.801000000
O    -0.304000000     1.123000000    -7.545000000
H    -0.355000000     0.990000000    -6.598000000
H    -0.923000000     0.489000000    -7.909000000
O    -0.345000000     3.326000000     6.129000000
H    -0.516000000     4.231000000     6.387000000
H     0.447000000     3.375000000     5.593000000
O     3.104000000    -1.235000000     6.635000000
H     2.829000000    -1.742000000     5.871000000
H     3.660000000    -1.835000000     7.133000000
O     5.419000000    -3.907000000    -0.359000000
H     4.831000000    -3.723000000    -1.092000000
H     6.295000000    -3.884000000    -0.744000000
O    -5.400000000     4.689000000    -0.697000000
H    -4.690000000     5.291000000    -0.924000000
H    -4.955000000     3.896000000    -0.399000000
O     5.879000000     5.615000000     3.333000000
H     6.483000000     5.130000000     3.895000000
H     5.234000000     4.965000000     3.057000000
