144
-2825.33127
O     0.128000000     3.658000000     6.246000000
H    -0.257000000     4.424000000     5.821000000
H    -0.525000000     3.388000000     6.892000000
O     3.144000000    -4.521000000    -2.561000000
H     2.945000000    -4.514000000    -1.625000000
H     4.093000000    -4.407000000    -2.605000000
O    -2.455000000    -1.572000000     5.930000000
H    -1.756000000    -1.530000000     5.277000000
H    -3.263000000    -1.511000000     5.420000000
O    -2.646000000     2.255000000    -0.038000000
H    -3.379000000     1.645000000     0.047000000
H    -1.867000000     1.703000000     0.022000000
O    -3.431000000     3.275000000     5.748000000
H    -3.184000000     2.884000000     6.586000000
H    -3.786000000     2.547000000     5.239000000
O    -2.624000000     0.525000000     3.351000000
H    -2.732000000     1.475000000     3.299000000
H    -1.680000000     0.396000000     3.441000000
O    -3.847000000    -2.847000000     3.640000000
H    -4.540000000    -3.193000000     4.201000000
H    -3.075000000    -3.368000000     3.862000000
O    -0.969000000     6.433000000     1.564000000
H    -1.919000000     6.396000000     1.675000000
H    -0.775000000     5.743000000     0.929000000
O    -3.313000000    -1.096000000     1.458000000
H    -3.073000000    -0.438000000     2.110000000
H    -3.412000000    -1.905000000     1.958000000
O    -0.818000000     3.733000000    -4.858000000
H    -0.098000000     4.048000000    -4.311000000
H    -1.478000000     4.425000000    -4.806000000
O    -0.091000000    -2.934000000     6.748000000
H    -0.910000000    -3.400000000     6.916000000
H    -0.259000000    -2.039000000     7.043000000
O    -1.171000000     4.658000000    -0.594000000
H    -1.650000000     5.121000000    -1.282000000
H    -1.669000000     3.853000000    -0.456000000
O     3.263000000     3.947000000    -4.995000000
H     2.588000000     3.556000000    -5.550000000
H     3.775000000     4.494000000    -5.591000000
O     0.537000000    -5.843000000     4.613000000
H     0.673000000    -5.939000000     5.555000000
H     1.420000000    -5.822000000     4.244000000
O     0.048000000     0.656000000    -7.532000000
H    -0.570000000     0.501000000    -8.247000000
H     0.166000000    -0.203000000    -7.128000000
O     0.420000000    -3.125000000    -4.009000000
H     1.207000000    -3.643000000    -4.176000000
H     0.217000000    -3.287000000    -3.088000000
O     2.487000000     1.228000000     6.329000000
H     2.574000000     1.511000000     5.418000000
H     1.634000000     0.795000000     6.364000000
O     4.236000000    -0.633000000     7.162000000
H     3.586000000    -1.260000000     6.846000000
H     3.852000000     0.224000000     6.976000000
O     2.176000000    -2.951000000     5.102000000
H     1.541000000    -3.080000000     5.807000000
H     1.687000000    -2.488000000     4.422000000
O     3.034000000    -4.284000000     0.057000000
H     2.735000000    -3.757000000     0.797000000
H     3.489000000    -5.024000000     0.458000000
O    -0.535000000    -1.864000000    -6.152000000
H    -0.192000000    -2.468000000    -6.810000000
H    -0.268000000    -2.245000000    -5.315000000
O    -4.959000000     0.659000000    -0.167000000
H    -5.551000000     0.321000000    -0.839000000
H    -4.485000000    -0.111000000     0.144000000
O    -0.725000000    -4.324000000    -1.616000000
H    -0.673000000    -5.215000000    -1.270000000
H    -1.599000000    -4.022000000    -1.368000000
O     3.784000000    -0.038000000     0.520000000
H     3.007000000    -0.411000000     0.936000000
H     3.656000000    -0.201000000    -0.415000000
O    -4.845000000    -5.222000000    -2.110000000
H    -5.374000000    -4.483000000    -1.811000000
H    -4.086000000    -4.818000000    -2.531000000
O    -0.104000000     0.082000000     6.399000000
H    -0.024000000     0.124000000     5.447000000
H    -1.040000000     0.199000000     6.566000000
O     4.093000000     3.914000000    -1.257000000
H     3.234000000     4.107000000    -0.882000000
H     4.263000000     4.644000000    -1.853000000
O    -2.792000000     3.454000000     2.696000000
H    -3.576000000     3.986000000     2.561000000
H    -2.518000000     3.204000000     1.814000000
O    -2.602000000     4.948000000    -2.909000000
H    -3.154000000     4.292000000    -2.484000000
H    -2.969000000     5.037000000    -3.788000000
O     1.217000000     2.786000000     3.955000000
H     0.808000000     3.189000000     4.720000000
H     0.728000000     1.973000000     3.823000000
O     3.360000000    -0.457000000    -2.407000000
H     4.059000000    -0.075000000    -2.938000000
H     2.553000000    -0.206000000    -2.856000000
O     2.715000000     4.338000000     2.302000000
H     2.196000000     3.921000000     2.990000000
H     3.400000000     3.701000000     2.099000000
O    -2.918000000    -3.052000000    -0.705000000
H    -3.858000000    -3.106000000    -0.532000000
H    -2.641000000    -2.241000000    -0.277000000
O     4.286000000     1.469000000    -4.129000000
H     5.158000000     1.740000000    -4.418000000
H     3.774000000     2.278000000    -4.122000000
O     4.412000000     2.213000000     2.187000000
H     3.794000000     1.648000000     1.723000000
H     4.977000000     1.608000000     2.667000000
O    -1.308000000    -3.657000000     3.835000000
H    -0.812000000    -2.894000000     3.537000000
H    -0.639000000    -4.289000000     4.097000000
O     3.174000000    -5.470000000     4.078000000
H     3.450000000    -5.118000000     4.924000000
H     2.725000000    -4.741000000     3.650000000
O    -2.492000000     0.326000000    -6.007000000
H    -1.994000000    -0.491000000    -6.002000000
H    -1.833000000     1.009000000    -5.887000000
O     1.324000000     4.724000000    -3.290000000
H     1.742000000     4.733000000    -2.429000000
H     2.018000000     4.450000000    -3.890000000
O    -4.272000000    -2.323000000    -4.713000000
H    -4.072000000    -1.411000000    -4.920000000
H    -3.469000000    -2.660000000    -4.315000000
O    -4.246000000     2.276000000    -6.361000000
H    -5.041000000     1.896000000    -6.734000000
H    -3.618000000     1.554000000    -6.349000000
O     1.682000000     4.460000000    -0.433000000
H     0.733000000     4.332000000    -0.429000000
H     1.882000000     4.792000000     0.442000000
O     1.351000000     2.497000000    -6.275000000
H     0.717000000     2.642000000    -5.573000000
H     0.855000000     2.040000000    -6.955000000
O     1.374000000    -3.877000000     2.272000000
H     0.517000000    -4.213000000     2.008000000
H     1.182000000    -3.044000000     2.703000000
O    -4.844000000     0.958000000     4.883000000
H    -5.241000000     0.142000000     5.188000000
H    -4.258000000     0.690000000     4.175000000
O    -3.468000000    -4.923000000     1.408000000
H    -2.866000000    -4.482000000     0.808000000
H    -3.865000000    -4.214000000     1.914000000
O    -2.481000000    -4.491000000    -3.963000000
H    -2.200000000    -5.325000000    -4.341000000
H    -1.839000000    -4.312000000    -3.275000000
O     1.624000000     0.826000000     9.112000000
H     2.566000000     0.863000000     8.944000000
H     1.222000000     0.990000000     8.259000000
