144
-2824.73193
O    -0.582000000    -3.613000000    -6.173000000
H     0.208000000    -3.485000000    -5.647000000
H    -0.294000000    -4.150000000    -6.911000000
O    -1.474000000     0.517000000     6.264000000
H    -1.589000000     1.464000000     6.343000000
H    -1.392000000     0.363000000     5.323000000
O     2.039000000    -0.574000000    -5.649000000
H     1.452000000    -0.205000000    -4.989000000
H     1.651000000    -0.314000000    -6.485000000
O    -3.206000000    -1.639000000     3.963000000
H    -2.377000000    -1.220000000     3.734000000
H    -3.849000000    -1.234000000     3.381000000
O    -4.592000000     2.170000000     0.814000000
H    -4.278000000     2.088000000    -0.087000000
H    -4.826000000     3.094000000     0.903000000
O    -0.745000000     4.391000000     1.852000000
H    -0.559000000     3.506000000     2.163000000
H    -1.673000000     4.524000000     2.048000000
O     1.753000000     4.560000000    -2.848000000
H     1.457000000     4.896000000    -2.002000000
H     2.148000000     5.317000000    -3.281000000
O    -4.317000000    -0.198000000     1.972000000
H    -4.277000000     0.539000000     1.363000000
H    -5.246000000    -0.283000000     2.186000000
O     1.126000000     5.190000000     4.375000000
H     1.831000000     5.262000000     5.019000000
H     1.576000000     5.170000000     3.530000000
O    -3.786000000    -0.735000000     7.319000000
H    -3.249000000    -0.159000000     6.774000000
H    -4.610000000    -0.260000000     7.429000000
O     4.198000000    -3.506000000     0.542000000
H     3.292000000    -3.294000000     0.765000000
H     4.620000000    -3.671000000     1.385000000
O     0.306000000    -4.947000000    -3.496000000
H    -0.469000000    -4.387000000    -3.458000000
H     1.012000000    -4.361000000    -3.767000000
O     4.661000000    -0.200000000    -5.419000000
H     4.752000000    -0.724000000    -4.624000000
H     3.748000000     0.086000000    -5.415000000
O     2.082000000    -3.318000000    -5.010000000
H     2.444000000    -3.683000000    -5.818000000
H     2.131000000    -2.370000000    -5.133000000
O    -1.095000000    -0.373000000     8.763000000
H    -1.463000000     0.102000000     8.019000000
H    -1.494000000    -1.242000000     8.714000000
O    -1.782000000     1.701000000    -4.430000000
H    -0.851000000     1.635000000    -4.641000000
H    -1.918000000     1.052000000    -3.739000000
O    -1.882000000    -3.313000000    -3.802000000
H    -1.815000000    -2.394000000    -3.540000000
H    -1.651000000    -3.314000000    -4.731000000
O    -2.422000000    -0.653000000    -2.926000000
H    -3.163000000    -0.287000000    -3.409000000
H    -2.349000000    -0.102000000    -2.146000000
O     0.799000000     5.133000000    -0.368000000
H     1.648000000     5.475000000    -0.086000000
H     0.381000000     4.836000000     0.440000000
O     1.394000000     0.317000000     4.881000000
H     0.490000000     0.358000000     4.569000000
H     1.340000000     0.556000000     5.806000000
O     2.385000000    -2.386000000     5.485000000
H     1.680000000    -2.987000000     5.246000000
H     2.073000000    -1.526000000     5.205000000
O     0.532000000    -4.163000000     4.379000000
H     0.525000000    -5.004000000     3.921000000
H    -0.356000000    -4.072000000     4.725000000
O     5.824000000    -2.141000000    -3.592000000
H     5.410000000    -1.894000000    -2.765000000
H     6.306000000    -2.943000000    -3.388000000
O     3.632000000    -4.810000000    -2.343000000
H     3.417000000    -4.590000000    -3.249000000
H     4.046000000    -5.671000000    -2.397000000
O    -3.432000000    -0.276000000    -6.514000000
H    -3.098000000     0.212000000    -5.762000000
H    -3.324000000     0.321000000    -7.255000000
O     3.521000000    -0.213000000     3.161000000
H     3.365000000    -0.076000000     2.227000000
H     2.655000000    -0.143000000     3.562000000
O    -1.629000000    -1.954000000    -7.810000000
H    -2.321000000    -1.460000000    -7.369000000
H    -1.264000000    -2.516000000    -7.127000000
O     1.314000000     2.190000000    -4.382000000
H     2.207000000     1.910000000    -4.180000000
H     1.295000000     3.117000000    -4.143000000
O    -0.423000000     7.285000000     2.028000000
H    -0.437000000     6.336000000     1.903000000
H    -0.712000000     7.412000000     2.931000000
O    -2.110000000    -3.895000000     5.157000000
H    -2.040000000    -3.705000000     6.093000000
H    -2.888000000    -3.414000000     4.873000000
O    -0.993000000     3.634000000     5.299000000
H    -0.401000000     4.284000000     4.920000000
H    -1.011000000     2.923000000     4.658000000
O    -3.520000000     2.589000000    -1.847000000
H    -2.584000000     2.782000000    -1.785000000
H    -3.845000000     3.196000000    -2.513000000
O     3.437000000     2.290000000     3.985000000
H     3.395000000     1.339000000     3.883000000
H     3.149000000     2.447000000     4.884000000
O     4.130000000     0.869000000     0.477000000
H     4.039000000     1.725000000     0.896000000
H     5.020000000     0.869000000     0.124000000
O    -3.373000000    -3.637000000     0.355000000
H    -2.463000000    -3.904000000     0.222000000
H    -3.605000000    -3.169000000    -0.447000000
O     3.379000000     4.392000000     2.244000000
H     3.857000000     4.306000000     1.419000000
H     3.441000000     3.527000000     2.648000000
O    -3.515000000     4.582000000     7.007000000
H    -2.653000000     4.211000000     6.821000000
H    -3.904000000     3.980000000     7.641000000
O    -1.006000000     3.948000000    -2.244000000
H    -0.487000000     3.375000000    -2.808000000
H    -0.471000000     4.062000000    -1.459000000
O    -4.579000000    -3.765000000     2.722000000
H    -4.016000000    -3.099000000     3.118000000
H    -4.394000000    -3.708000000     1.784000000
O    -2.556000000    -5.693000000     3.296000000
H    -2.225000000    -5.176000000     4.030000000
H    -3.431000000    -5.343000000     3.131000000
O    -3.632000000     2.322000000     4.301000000
H    -3.357000000     1.565000000     3.784000000
H    -2.880000000     2.914000000     4.277000000
O     1.440000000    -3.353000000     1.859000000
H     1.589000000    -3.859000000     2.658000000
H     0.548000000    -3.018000000     1.951000000
O     3.327000000     2.134000000    -2.555000000
H     3.134000000     3.052000000    -2.367000000
H     3.810000000     1.829000000    -1.788000000
O     0.135000000     0.935000000    -7.173000000
H    -0.037000000     1.074000000    -8.104000000
H    -0.037000000     1.786000000    -6.769000000
O     4.319000000    -1.413000000    -1.395000000
H     3.911000000    -0.677000000    -0.939000000
H     4.275000000    -2.136000000    -0.770000000
O    -5.120000000     1.245000000     6.308000000
H    -4.658000000     1.814000000     5.692000000
H    -6.047000000     1.419000000     6.145000000
O    -4.763000000    -3.364000000    -3.636000000
H    -4.807000000    -3.610000000    -2.712000000
H    -3.832000000    -3.410000000    -3.852000000
O    -3.172000000     5.201000000     2.625000000
H    -3.066000000     5.951000000     3.210000000
H    -4.113000000     5.158000000     2.458000000
