144
-2817.84572
O    -6.165000000     0.681000000    -0.478000000
H    -5.366000000     1.168000000    -0.679000000
H    -6.833000000     1.076000000    -1.039000000
O     0.184000000    -0.855000000    -6.815000000
H    -0.007000000     0.074000000    -6.685000000
H     1.036000000    -0.985000000    -6.399000000
O    -1.459000000    -1.486000000     6.172000000
H    -1.693000000    -2.413000000     6.188000000
H    -1.304000000    -1.293000000     5.247000000
O     1.579000000    -3.160000000    -4.266000000
H     2.033000000    -2.359000000    -4.528000000
H     0.832000000    -2.854000000    -3.751000000
O    -2.642000000    -4.605000000    -3.324000000
H    -3.421000000    -5.138000000    -3.167000000
H    -2.822000000    -3.779000000    -2.876000000
O    -2.565000000    -3.901000000     0.410000000
H    -2.879000000    -4.666000000     0.892000000
H    -1.915000000    -3.503000000     0.989000000
O     1.484000000     4.358000000    -4.848000000
H     1.450000000     5.067000000    -5.490000000
H     1.452000000     4.800000000    -4.000000000
O    -3.239000000     4.917000000     2.519000000
H    -2.911000000     5.785000000     2.755000000
H    -2.657000000     4.309000000     2.976000000
O     2.572000000     2.626000000    -6.705000000
H     1.939000000     2.690000000    -7.420000000
H     2.132000000     3.032000000    -5.959000000
O     4.472000000     3.833000000    -3.780000000
H     4.152000000     4.719000000    -3.613000000
H     4.774000000     3.522000000    -2.927000000
O    -2.130000000    -0.600000000    -2.438000000
H    -1.727000000    -0.056000000    -1.761000000
H    -2.747000000    -1.156000000    -1.962000000
O    -1.968000000    -4.266000000     6.728000000
H    -2.327000000    -4.293000000     5.841000000
H    -1.992000000    -5.176000000     7.024000000
O     6.293000000     0.686000000    -4.491000000
H     6.386000000     1.622000000    -4.667000000
H     5.461000000     0.612000000    -4.024000000
O    -2.823000000     4.395000000    -0.183000000
H    -3.090000000     4.456000000     0.734000000
H    -3.286000000     3.626000000    -0.516000000
O    -2.461000000    -4.303000000     4.134000000
H    -2.002000000    -3.756000000     3.497000000
H    -2.963000000    -4.921000000     3.601000000
O     2.621000000    -3.672000000     5.177000000
H     1.842000000    -4.206000000     5.021000000
H     3.232000000    -4.262000000     5.619000000
O     4.297000000    -5.608000000     0.453000000
H     3.713000000    -5.081000000    -0.092000000
H     3.986000000    -5.464000000     1.347000000
O    -0.923000000    -1.738000000    -4.399000000
H    -1.523000000    -1.399000000    -3.734000000
H    -1.342000000    -1.522000000    -5.232000000
O     6.057000000    -0.557000000    -1.459000000
H     6.651000000    -0.099000000    -0.865000000
H     5.220000000    -0.103000000    -1.357000000
O     3.401000000    -2.692000000    -0.068000000
H     2.668000000    -3.204000000    -0.407000000
H     3.454000000    -2.934000000     0.857000000
O     2.573000000    -0.867000000    -5.508000000
H     2.867000000    -0.179000000    -4.911000000
H     3.368000000    -1.145000000    -5.963000000
O    -1.218000000     2.998000000     4.101000000
H    -0.397000000     2.521000000     4.220000000
H    -1.891000000     2.316000000     4.085000000
O    -2.646000000     1.492000000    -6.809000000
H    -2.299000000     2.182000000    -6.244000000
H    -2.942000000     1.952000000    -7.594000000
O     5.685000000    -3.411000000    -1.454000000
H     5.023000000    -3.267000000    -0.777000000
H     5.964000000    -2.530000000    -1.707000000
O     2.360000000     4.119000000     0.275000000
H     2.672000000     4.898000000     0.735000000
H     2.958000000     3.423000000     0.549000000
O    -3.680000000    -2.661000000    -1.566000000
H    -3.466000000    -3.032000000    -0.710000000
H    -4.513000000    -3.069000000    -1.803000000
O     0.663000000     1.119000000     4.372000000
H     0.755000000     1.188000000     5.323000000
H     0.153000000     0.320000000     4.239000000
O     0.103000000    -4.877000000    -2.655000000
H     0.597000000    -4.271000000    -3.207000000
H    -0.778000000    -4.503000000    -2.618000000
O    -1.771000000     4.369000000     6.415000000
H    -2.667000000     4.150000000     6.671000000
H    -1.667000000     3.975000000     5.548000000
O     1.511000000    -4.566000000    -0.253000000
H     0.985000000    -4.835000000    -1.006000000
H     0.900000000    -4.578000000     0.484000000
O    -3.890000000    -5.692000000     2.260000000
H    -4.776000000    -5.349000000     2.374000000
H    -4.017000000    -6.616000000     2.044000000
O    -3.175000000     1.039000000     3.824000000
H    -3.882000000     0.618000000     3.335000000
H    -2.418000000     0.468000000     3.691000000
O     3.453000000    -3.669000000     2.539000000
H     3.531000000    -4.553000000     2.897000000
H     3.188000000    -3.131000000     3.285000000
O     0.792000000    -5.544000000     4.939000000
H    -0.165000000    -5.536000000     4.948000000
H     1.026000000    -6.451000000     5.133000000
O    -1.230000000     3.567000000    -5.859000000
H    -1.804000000     3.930000000    -5.184000000
H    -0.345000000     3.759000000    -5.550000000
O     0.558000000     0.127000000     7.194000000
H     1.239000000    -0.458000000     7.525000000
H    -0.152000000    -0.457000000     6.928000000
O    -5.360000000     0.110000000     2.180000000
H    -5.512000000     1.039000000     2.354000000
H    -5.722000000    -0.032000000     1.305000000
O     1.088000000     5.681000000    -2.060000000
H     1.898000000     6.155000000    -1.872000000
H     1.062000000     4.982000000    -1.407000000
O    -3.442000000     6.427000000    -2.019000000
H    -4.090000000     7.092000000    -1.788000000
H    -3.398000000     5.858000000    -1.250000000
O     2.336000000     1.283000000     2.182000000
H     1.965000000     0.708000000     2.851000000
H     1.581000000     1.738000000     1.810000000
O     3.622000000     1.413000000    -4.048000000
H     3.444000000     2.139000000    -3.450000000
H     3.562000000     1.801000000    -4.921000000
O     5.138000000     3.181000000    -1.158000000
H     5.368000000     4.034000000    -0.790000000
H     5.554000000     2.548000000    -0.573000000
O     0.239000000    -4.448000000     2.026000000
H     0.749000000    -4.957000000     2.656000000
H    -0.142000000    -3.739000000     2.544000000
O     3.973000000     0.032000000     0.424000000
H     3.357000000     0.514000000     0.975000000
H     3.586000000    -0.839000000     0.338000000
O    -0.167000000     5.549000000     0.991000000
H     0.432000000     4.803000000     0.976000000
H    -0.927000000     5.257000000     0.488000000
O    -4.199000000     2.989000000     6.018000000
H    -4.316000000     2.514000000     5.195000000
H    -3.997000000     2.309000000     6.661000000
O    -2.667000000     0.724000000     7.712000000
H    -3.555000000     0.367000000     7.697000000
H    -2.123000000     0.028000000     7.342000000
O    -4.863000000     2.889000000    -1.735000000
H    -4.887000000     2.880000000    -2.692000000
H    -5.637000000     3.390000000    -1.480000000
