144
-2813.73817
O    -3.153000000     3.597000000     0.047000000
H    -2.959000000     3.848000000    -0.856000000
H    -3.599000000     4.359000000     0.417000000
O    -0.117000000    -2.057000000     5.905000000
H     0.487000000    -1.444000000     5.487000000
H    -0.746000000    -2.280000000     5.218000000
O     0.831000000    -2.728000000    -4.466000000
H     1.501000000    -2.046000000    -4.513000000
H     1.116000000    -3.388000000    -5.098000000
O    -2.788000000    -5.017000000     5.328000000
H    -2.724000000    -5.180000000     4.387000000
H    -2.740000000    -4.064000000     5.410000000
O    -3.372000000    -3.706000000     2.508000000
H    -3.628000000    -3.073000000     3.180000000
H    -2.435000000    -3.554000000     2.381000000
O    -1.542000000     4.027000000     4.121000000
H    -1.052000000     3.258000000     4.413000000
H    -2.035000000     4.304000000     4.893000000
O     1.068000000     3.012000000    -5.361000000
H     0.517000000     3.628000000    -5.844000000
H     0.861000000     3.176000000    -4.441000000
O    -3.601000000    -2.341000000     5.189000000
H    -4.462000000    -2.258000000     4.780000000
H    -3.169000000    -1.506000000     5.007000000
O     3.495000000    -2.354000000    -3.195000000
H     2.790000000    -2.102000000    -2.598000000
H     3.810000000    -3.190000000    -2.853000000
O    -3.255000000     0.419000000    -0.825000000
H    -2.321000000     0.443000000    -0.617000000
H    -3.689000000     0.665000000    -0.008000000
O     0.759000000    -4.153000000     7.562000000
H     0.516000000    -3.428000000     6.987000000
H     0.437000000    -4.934000000     7.113000000
O    -0.801000000    -6.160000000    -0.500000000
H    -0.698000000    -5.993000000     0.437000000
H    -1.251000000    -5.384000000    -0.833000000
O     5.029000000    -0.429000000    -4.451000000
H     4.568000000     0.341000000    -4.118000000
H     4.504000000    -1.170000000    -4.150000000
O     3.622000000     4.227000000     1.236000000
H     2.876000000     3.676000000     1.473000000
H     4.305000000     3.988000000     1.863000000
O    -5.708000000    -3.053000000     1.067000000
H    -5.560000000    -3.445000000     0.206000000
H    -4.923000000    -3.275000000     1.569000000
O     0.530000000     5.044000000     2.078000000
H     1.286000000     4.797000000     2.611000000
H    -0.216000000     4.637000000     2.518000000
O     0.525000000    -4.720000000     3.425000000
H    -0.026000000    -4.055000000     3.011000000
H     0.003000000    -5.521000000     3.386000000
O     2.613000000    -4.963000000     5.110000000
H     1.872000000    -4.797000000     4.527000000
H     2.267000000    -5.560000000     5.774000000
O    -1.919000000    -3.890000000    -1.800000000
H    -2.196000000    -4.514000000    -2.471000000
H    -2.629000000    -3.249000000    -1.761000000
O    -1.310000000    -0.450000000    -5.202000000
H    -0.575000000    -1.025000000    -4.989000000
H    -1.226000000    -0.294000000    -6.143000000
O     2.378000000    -0.160000000    -5.999000000
H     2.280000000     0.728000000    -5.657000000
H     3.152000000    -0.117000000    -6.560000000
O    -2.171000000    -4.280000000    -5.855000000
H    -2.628000000    -4.775000000    -5.175000000
H    -1.369000000    -3.976000000    -5.432000000
O     0.064000000     2.197000000     5.317000000
H     0.478000000     2.572000000     6.094000000
H     0.750000000     1.665000000     4.913000000
O    -3.838000000    -1.990000000    -1.963000000
H    -3.681000000    -1.145000000    -1.541000000
H    -4.649000000    -2.309000000    -1.567000000
O     1.738000000     0.443000000     4.264000000
H     2.113000000     0.085000000     5.069000000
H     1.428000000    -0.325000000     3.783000000
O     1.092000000    -3.698000000    -1.954000000
H     1.120000000    -3.351000000    -2.846000000
H     0.323000000    -3.287000000    -1.561000000
O     3.584000000     1.691000000     2.661000000
H     3.587000000     0.981000000     2.019000000
H     2.968000000     1.402000000     3.334000000
O     2.383000000    -5.437000000    -0.374000000
H     1.995000000    -4.948000000    -1.100000000
H     2.309000000    -4.848000000     0.377000000
O    -1.137000000    -6.697000000     2.705000000
H    -1.922000000    -7.244000000     2.673000000
H    -0.423000000    -7.312000000     2.874000000
O    -2.728000000     0.358000000     4.725000000
H    -2.528000000     1.287000000     4.611000000
H    -1.915000000    -0.092000000     4.497000000
O     2.937000000    -0.433000000     6.432000000
H     3.879000000    -0.383000000     6.269000000
H     2.834000000    -1.193000000     7.005000000
O    -4.678000000     0.719000000     1.700000000
H    -4.411000000     0.799000000     2.616000000
H    -5.451000000     1.278000000     1.625000000
O    -4.615000000    -6.358000000     2.696000000
H    -5.442000000    -6.185000000     3.145000000
H    -4.194000000    -5.501000000     2.632000000
O     4.030000000     5.072000000    -3.062000000
H     4.705000000     4.791000000    -3.681000000
H     4.512000000     5.280000000    -2.261000000
O    -2.306000000     5.518000000    -2.662000000
H    -1.674000000     5.316000000    -1.972000000
H    -3.103000000     5.764000000    -2.191000000
O     3.405000000     2.295000000    -6.419000000
H     2.553000000     2.593000000    -6.100000000
H     4.023000000     2.568000000    -5.741000000
O     2.308000000     4.546000000    -0.993000000
H     2.849000000     4.001000000    -0.422000000
H     2.811000000     4.615000000    -1.805000000
O    -4.540000000    -1.348000000    -4.496000000
H    -4.244000000    -1.586000000    -3.618000000
H    -3.991000000    -0.602000000    -4.740000000
O     4.108000000     1.948000000    -3.697000000
H     4.973000000     2.333000000    -3.561000000
H     3.733000000     1.886000000    -2.818000000
O     3.843000000     1.788000000    -0.817000000
H     4.712000000     1.847000000    -0.420000000
H     3.484000000     0.965000000    -0.484000000
O     2.826000000    -3.847000000     2.363000000
H     3.027000000    -3.297000000     3.120000000
H     2.272000000    -4.545000000     2.714000000
O    -3.167000000     1.203000000    -3.795000000
H    -3.187000000     1.074000000    -2.847000000
H    -2.304000000     0.887000000    -4.061000000
O     3.223000000    -0.484000000     1.268000000
H     2.295000000    -0.590000000     1.063000000
H     3.643000000    -1.257000000     0.889000000
O     1.957000000     6.625000000    -3.540000000
H     2.540000000     5.866000000    -3.507000000
H     2.405000000     7.294000000    -3.023000000
O    -0.584000000     5.154000000    -0.650000000
H     0.278000000     5.109000000    -1.065000000
H    -0.433000000     4.863000000     0.249000000
O    -3.833000000     1.761000000     6.937000000
H    -3.501000000     1.015000000     6.437000000
H    -4.750000000     1.838000000     6.671000000
O     0.120000000     0.345000000    -7.652000000
H     0.841000000     0.152000000    -7.053000000
H     0.304000000     1.229000000    -7.972000000
O    -3.988000000     3.321000000     3.003000000
H    -3.875000000     2.991000000     2.111000000
H    -3.176000000     3.792000000     3.189000000
