144
-2829.81604
O     1.716000000    -1.718000000     4.640000000
H     0.970000000    -1.477000000     4.091000000
H     1.602000000    -1.204000000     5.439000000
O     5.024000000    -1.591000000     1.415000000
H     5.967000000    -1.641000000     1.575000000
H     4.850000000    -2.291000000     0.786000000
O    -3.707000000     2.810000000     3.741000000
H    -3.448000000     3.188000000     4.581000000
H    -3.124000000     2.060000000     3.626000000
O    -0.501000000    -0.566000000     6.505000000
H    -0.632000000    -0.488000000     5.560000000
H    -0.368000000    -1.502000000     6.652000000
O    -2.917000000     3.590000000    -2.796000000
H    -2.690000000     2.732000000    -3.155000000
H    -2.142000000     3.854000000    -2.300000000
O    -0.733000000     2.117000000     7.107000000
H    -0.699000000     1.173000000     6.958000000
H    -1.544000000     2.253000000     7.597000000
O    -5.309000000     1.448000000     5.886000000
H    -6.104000000     1.687000000     6.363000000
H    -5.264000000     2.076000000     5.166000000
O    -5.164000000     4.499000000     1.917000000
H    -4.806000000     3.918000000     2.589000000
H    -4.754000000     4.205000000     1.104000000
O     0.120000000     2.657000000    -4.834000000
H    -0.438000000     1.901000000    -5.015000000
H     0.880000000     2.536000000    -5.403000000
O    -5.777000000     0.820000000     1.298000000
H    -5.264000000     1.586000000     1.040000000
H    -6.445000000     0.740000000     0.616000000
O     5.548000000     2.633000000    -2.003000000
H     5.001000000     1.863000000    -1.850000000
H     5.855000000     2.886000000    -1.133000000
O     4.878000000    -2.752000000     3.803000000
H     4.344000000    -3.546000000     3.817000000
H     4.525000000    -2.239000000     3.075000000
O    -2.000000000    -3.523000000    -1.456000000
H    -1.111000000    -3.789000000    -1.690000000
H    -2.475000000    -3.516000000    -2.287000000
O    -2.360000000    -2.967000000    -4.463000000
H    -2.982000000    -3.256000000    -5.130000000
H    -1.716000000    -2.447000000    -4.945000000
O     3.669000000     0.176000000     3.205000000
H     3.234000000    -0.536000000     3.673000000
H     4.364000000    -0.255000000     2.707000000
O    -1.769000000     0.975000000    -5.569000000
H    -1.199000000     0.666000000    -6.273000000
H    -2.389000000     0.259000000    -5.431000000
O    -2.633000000    -4.434000000     5.764000000
H    -3.181000000    -3.735000000     5.407000000
H    -1.867000000    -4.455000000     5.190000000
O     0.923000000    -3.639000000    -2.643000000
H     1.875000000    -3.696000000    -2.722000000
H     0.747000000    -2.705000000    -2.531000000
O     3.595000000    -1.409000000    -3.402000000
H     3.738000000    -0.585000000    -3.868000000
H     3.879000000    -2.085000000    -4.018000000
O     4.518000000    -0.750000000    -6.620000000
H     5.388000000    -0.679000000    -7.012000000
H     4.472000000    -0.016000000    -6.006000000
O     4.913000000     1.314000000    -4.739000000
H     5.736000000     1.631000000    -5.111000000
H     4.946000000     1.584000000    -3.821000000
O     0.175000000    -3.224000000     7.164000000
H     0.240000000    -4.128000000     6.857000000
H    -0.066000000    -3.302000000     8.088000000
O    -4.282000000    -0.977000000    -0.564000000
H    -4.656000000    -0.196000000    -0.157000000
H    -4.271000000    -0.777000000    -1.500000000
O    -0.312000000    -5.522000000     1.930000000
H    -0.115000000    -6.149000000     2.627000000
H    -0.719000000    -4.782000000     2.381000000
O    -0.124000000     4.155000000    -2.423000000
H     0.310000000     3.772000000    -1.661000000
H     0.036000000     3.530000000    -3.130000000
O    -2.994000000    -2.914000000     0.936000000
H    -2.488000000    -3.311000000     0.227000000
H    -3.496000000    -2.218000000     0.511000000
O     3.637000000    -4.837000000    -2.483000000
H     4.293000000    -4.141000000    -2.532000000
H     3.768000000    -5.346000000    -3.283000000
O     2.849000000     5.200000000    -1.653000000
H     2.742000000     4.251000000    -1.710000000
H     2.505000000     5.530000000    -2.483000000
O     2.576000000    -4.608000000     4.398000000
H     2.280000000    -4.977000000     3.566000000
H     2.113000000    -3.774000000     4.468000000
O     0.653000000     4.265000000     0.609000000
H     1.259000000     4.984000000     0.431000000
H     0.740000000     4.106000000     1.549000000
O     2.742000000    -5.334000000     1.609000000
H     2.894000000    -5.674000000     0.727000000
H     1.800000000    -5.433000000     1.745000000
O    -2.411000000     5.609000000     2.764000000
H    -2.576000000     4.962000000     3.449000000
H    -2.974000000     5.338000000     2.039000000
O    -3.319000000    -0.391000000     6.030000000
H    -4.055000000     0.221000000     6.032000000
H    -2.646000000     0.045000000     5.508000000
O    -2.179000000     4.542000000    -0.111000000
H    -1.331000000     4.282000000     0.250000000
H    -1.993000000     5.336000000    -0.612000000
O    -1.389000000    -3.476000000     3.489000000
H    -0.963000000    -2.666000000     3.770000000
H    -2.212000000    -3.189000000     3.094000000
O     2.944000000    -3.138000000    -6.150000000
H     2.796000000    -2.462000000    -6.810000000
H     3.893000000    -3.152000000    -6.030000000
O     0.364000000    -3.572000000    -5.572000000
H     0.297000000    -3.682000000    -4.624000000
H     1.302000000    -3.629000000    -5.754000000
O    -0.977000000     4.856000000    -5.934000000
H    -0.202000000     5.019000000    -6.472000000
H    -0.772000000     4.053000000    -5.456000000
O     4.036000000     0.323000000    -1.192000000
H     4.179000000    -0.281000000    -1.921000000
H     4.089000000    -0.228000000    -0.411000000
O    -3.838000000    -0.804000000    -3.204000000
H    -3.847000000    -0.674000000    -4.152000000
H    -3.086000000    -1.374000000    -3.047000000
O    -0.768000000    -1.449000000    -6.711000000
H    -0.465000000    -2.253000000    -6.289000000
H    -0.150000000    -1.307000000    -7.428000000
O    -4.538000000     2.893000000    -0.301000000
H    -3.764000000     3.420000000    -0.499000000
H    -4.757000000     2.467000000    -1.130000000
O     0.370000000     1.490000000    -7.320000000
H    -0.230000000     1.926000000    -7.926000000
H     1.240000000     1.665000000    -7.678000000
O     3.149000000     2.433000000    -6.751000000
H     3.211000000     1.709000000    -7.374000000
H     3.617000000     2.123000000    -5.976000000
O     0.555000000     2.134000000     4.313000000
H     0.415000000     1.768000000     5.186000000
H    -0.271000000     1.983000000     3.854000000
O    -4.315000000    -2.617000000     4.873000000
H    -3.855000000    -2.005000000     5.448000000
H    -4.578000000    -2.086000000     4.121000000
O     2.162000000     2.625000000    -1.106000000
H     2.849000000     1.995000000    -0.888000000
H     1.536000000     2.555000000    -0.385000000
O    -4.390000000    -0.309000000     3.175000000
H    -4.963000000     0.041000000     2.494000000
H    -3.600000000     0.230000000     3.124000000
