144
-2802.13988
O     2.920000000    -5.030000000    -4.188000000
H     3.744000000    -4.635000000    -4.473000000
H     3.184000000    -5.795000000    -3.678000000
O     3.011000000    -0.928000000    -3.930000000
H     2.612000000    -1.705000000    -4.322000000
H     2.291000000    -0.496000000    -3.471000000
O    -3.753000000    -2.704000000    -0.116000000
H    -3.480000000    -1.863000000     0.251000000
H    -3.426000000    -2.691000000    -1.015000000
O    -4.270000000     6.949000000     2.860000000
H    -3.806000000     6.149000000     3.107000000
H    -4.972000000     6.651000000     2.282000000
O    -3.772000000     2.461000000    -2.512000000
H    -4.458000000     2.557000000    -1.852000000
H    -2.956000000     2.602000000    -2.032000000
O    -1.613000000    -0.847000000     2.610000000
H    -2.265000000    -0.146000000     2.616000000
H    -1.199000000    -0.782000000     1.750000000
O     0.744000000     1.163000000     5.742000000
H     0.693000000     1.656000000     4.923000000
H     0.018000000     0.541000000     5.692000000
O    -5.544000000     6.346000000     0.604000000
H    -5.185000000     6.573000000    -0.254000000
H    -6.461000000     6.618000000     0.559000000
O    -1.310000000    -0.744000000     5.478000000
H    -1.161000000    -0.774000000     4.533000000
H    -1.339000000    -1.662000000     5.746000000
O    -2.180000000    -3.485000000    -2.477000000
H    -1.693000000    -2.784000000    -2.910000000
H    -1.844000000    -4.290000000    -2.872000000
O     5.395000000     0.313000000    -2.375000000
H     4.763000000    -0.363000000    -2.621000000
H     5.760000000     0.009000000    -1.544000000
O    -0.907000000    -5.312000000     0.603000000
H    -0.268000000    -4.627000000     0.404000000
H    -1.033000000    -5.770000000    -0.229000000
O    -2.018000000    -7.554000000     1.437000000
H    -1.860000000    -7.704000000     2.369000000
H    -1.441000000    -6.825000000     1.209000000
O    -4.560000000    -0.114000000    -3.531000000
H    -4.030000000     0.475000000    -2.994000000
H    -4.875000000     0.436000000    -4.248000000
O     5.108000000    -3.267000000    -4.785000000
H     5.310000000    -2.456000000    -5.250000000
H     5.318000000    -3.078000000    -3.870000000
O     0.175000000     4.688000000     5.290000000
H    -0.425000000     4.302000000     4.652000000
H    -0.174000000     5.565000000     5.447000000
O    -4.171000000    -4.994000000     0.998000000
H    -3.323000000    -5.332000000     1.286000000
H    -3.962000000    -4.170000000     0.557000000
O    -2.872000000     4.616000000     2.975000000
H    -3.304000000     3.969000000     3.533000000
H    -2.032000000     4.214000000     2.750000000
O     0.778000000    -2.861000000    -5.878000000
H     1.435000000    -2.837000000    -6.574000000
H     0.812000000    -3.758000000    -5.547000000
O     0.255000000    -3.036000000     3.531000000
H    -0.395000000    -2.387000000     3.260000000
H    -0.230000000    -3.860000000     3.569000000
O    -0.351000000     7.227000000     1.040000000
H    -0.346000000     7.292000000     1.995000000
H    -1.085000000     6.646000000     0.843000000
O     2.625000000    -2.065000000     4.497000000
H     1.777000000    -2.306000000     4.123000000
H     3.266000000    -2.513000000     3.944000000
O     4.444000000     4.339000000     0.500000000
H     4.336000000     5.283000000     0.382000000
H     3.550000000     4.001000000     0.551000000
O     4.370000000    -3.471000000     2.790000000
H     5.318000000    -3.602000000     2.798000000
H     4.008000000    -4.329000000     3.012000000
O    -1.574000000     7.812000000    -1.870000000
H    -1.600000000     8.623000000    -1.363000000
H    -1.837000000     7.133000000    -1.248000000
O     3.886000000     0.363000000     3.973000000
H     3.445000000     0.939000000     4.597000000
H     3.407000000    -0.464000000     4.030000000
O    -5.695000000    -0.409000000     1.635000000
H    -6.401000000    -0.759000000     2.179000000
H    -5.935000000    -0.658000000     0.742000000
O    -4.905000000     3.027000000    -0.208000000
H    -5.257000000     3.808000000     0.219000000
H    -4.005000000     2.964000000     0.113000000
O     1.614000000     5.107000000    -1.492000000
H     1.758000000     5.518000000    -0.640000000
H     1.900000000     4.202000000    -1.373000000
O    -2.620000000     5.936000000     0.398000000
H    -2.434000000     5.003000000     0.503000000
H    -3.568000000     6.005000000     0.510000000
O     4.339000000    -3.051000000    -0.014000000
H     4.161000000    -3.961000000    -0.253000000
H     4.319000000    -3.047000000     0.943000000
O     6.249000000     0.150000000     2.624000000
H     6.598000000     0.923000000     3.067000000
H     5.389000000     0.013000000     3.022000000
O     2.658000000    -7.264000000     2.177000000
H     3.407000000    -7.823000000     1.974000000
H     3.042000000    -6.408000000     2.368000000
O     1.552000000     4.783000000     1.506000000
H     1.417000000     5.719000000     1.653000000
H     0.669000000     4.427000000     1.404000000
O     2.463000000     2.498000000    -1.642000000
H     1.921000000     1.939000000    -2.199000000
H     3.077000000     1.895000000    -1.222000000
O    -4.666000000     2.083000000    -5.211000000
H    -4.149000000     2.268000000    -4.427000000
H    -4.969000000     2.941000000    -5.506000000
O     3.392000000    -5.867000000    -0.522000000
H     3.419000000    -6.263000000    -1.393000000
H     2.667000000    -6.310000000    -0.081000000
O    -0.644000000    -6.638000000    -1.826000000
H     0.161000000    -7.056000000    -2.131000000
H    -1.341000000    -7.080000000    -2.311000000
O    -2.445000000     5.239000000    -4.374000000
H    -3.354000000     4.940000000    -4.358000000
H    -2.020000000     4.753000000    -3.666000000
O    -3.387000000     1.217000000     2.842000000
H    -3.828000000     1.786000000     3.473000000
H    -4.095000000     0.858000000     2.308000000
O    -0.540000000     2.342000000     3.456000000
H    -0.577000000     2.930000000     2.701000000
H    -1.012000000     1.559000000     3.174000000
O     0.397000000     1.052000000    -2.873000000
H    -0.072000000     0.341000000    -2.437000000
H     0.285000000     0.876000000    -3.808000000
O     4.253000000     5.483000000     3.223000000
H     3.582000000     5.035000000     3.738000000
H     4.501000000     4.849000000     2.549000000
O    -1.106000000     3.421000000    -2.644000000
H    -0.448000000     2.840000000    -3.024000000
H    -0.620000000     3.956000000    -2.016000000
O     6.503000000     0.630000000    -0.018000000
H     6.167000000     0.384000000     0.844000000
H     7.436000000     0.419000000     0.020000000
O    -0.800000000    -1.410000000    -4.104000000
H    -0.354000000    -1.964000000    -4.745000000
H    -1.183000000    -0.703000000    -4.623000000
O     6.048000000    -2.876000000    -2.099000000
H     5.325000000    -2.867000000    -1.472000000
H     6.797000000    -2.541000000    -1.607000000
O     2.562000000     3.759000000     4.219000000
H     2.171000000     3.813000000     3.347000000
H     1.884000000     4.091000000     4.807000000
