144
-2811.26083
O     1.385000000    -3.470000000    -3.811000000
H     1.791000000    -2.605000000    -3.771000000
H     1.638000000    -3.814000000    -4.668000000
O     2.118000000    -5.547000000    -1.798000000
H     1.757000000    -6.393000000    -2.065000000
H     1.874000000    -4.949000000    -2.505000000
O     1.178000000     6.795000000     0.268000000
H     1.981000000     6.920000000     0.775000000
H     0.736000000     6.062000000     0.697000000
O     0.692000000     1.337000000    -2.646000000
H     0.324000000     1.015000000    -1.822000000
H     1.381000000     1.945000000    -2.379000000
O    -4.282000000    -3.141000000    -0.588000000
H    -3.968000000    -4.016000000    -0.361000000
H    -3.673000000    -2.836000000    -1.261000000
O     7.386000000     0.559000000    -1.008000000
H     6.752000000    -0.079000000    -1.334000000
H     8.212000000     0.309000000    -1.421000000
O    -5.537000000     3.042000000    -1.126000000
H    -5.891000000     3.880000000    -0.830000000
H    -4.780000000     2.888000000    -0.561000000
O    -3.235000000    -0.285000000     4.213000000
H    -3.947000000    -0.662000000     3.696000000
H    -3.639000000     0.447000000     4.679000000
O    -0.247000000     1.142000000     5.014000000
H    -0.693000000     1.301000000     5.846000000
H    -0.165000000     0.189000000     4.966000000
O    -5.582000000     5.783000000     1.486000000
H    -5.502000000     4.841000000     1.632000000
H    -4.711000000     6.056000000     1.195000000
O     5.005000000    -0.745000000    -2.251000000
H     4.715000000    -1.603000000    -1.941000000
H     4.431000000    -0.551000000    -2.991000000
O     2.231000000    -0.703000000    -4.048000000
H     2.028000000    -0.841000000    -4.973000000
H     1.609000000    -0.033000000    -3.764000000
O    -3.284000000    -2.790000000    -2.934000000
H    -3.106000000    -1.925000000    -3.301000000
H    -2.467000000    -3.274000000    -3.053000000
O     2.682000000     2.952000000    -1.185000000
H     2.901000000     3.873000000    -1.322000000
H     3.491000000     2.559000000    -0.858000000
O    -1.237000000    -2.074000000     2.548000000
H    -2.024000000    -1.586000000     2.793000000
H    -0.663000000    -1.419000000     2.151000000
O     0.200000000    -4.775000000    -0.034000000
H     0.962000000    -5.024000000    -0.557000000
H     0.564000000    -4.521000000     0.814000000
O    -6.507000000     0.369000000    -1.690000000
H    -6.369000000     1.303000000    -1.848000000
H    -6.825000000     0.029000000    -2.527000000
O     4.868000000    -3.399000000    -4.337000000
H     5.557000000    -3.906000000    -4.768000000
H     4.867000000    -3.716000000    -3.434000000
O    -3.347000000     5.811000000     3.531000000
H    -3.951000000     5.159000000     3.176000000
H    -2.546000000     5.321000000     3.715000000
O    -0.603000000    -1.867000000    -5.657000000
H     0.249000000    -1.630000000    -6.022000000
H    -0.873000000    -2.637000000    -6.158000000
O     0.694000000    -4.043000000     3.135000000
H     0.365000000    -4.463000000     3.930000000
H     0.086000000    -3.321000000     2.977000000
O    -0.184000000     5.661000000     4.532000000
H    -0.580000000     5.565000000     5.398000000
H    -0.148000000     6.606000000     4.389000000
O     2.603000000    -3.041000000     5.027000000
H     2.029000000    -3.709000000     4.652000000
H     3.472000000    -3.255000000     4.689000000
O     2.082000000     2.327000000     4.385000000
H     1.276000000     1.815000000     4.457000000
H     1.936000000     3.083000000     4.953000000
O    -8.004000000     1.706000000     0.432000000
H    -7.465000000     2.477000000     0.256000000
H    -7.914000000     1.167000000    -0.353000000
O     5.047000000    -3.660000000     4.085000000
H     5.675000000    -4.212000000     4.550000000
H     4.806000000    -4.169000000     3.312000000
O     4.643000000     0.999000000     4.093000000
H     5.077000000     1.782000000     3.752000000
H     3.763000000     1.295000000     4.324000000
O     5.346000000     2.979000000     2.528000000
H     4.795000000     3.759000000     2.588000000
H     4.960000000     2.465000000     1.819000000
O    -5.130000000     3.333000000     2.094000000
H    -5.346000000     2.928000000     2.934000000
H    -4.725000000     2.630000000     1.586000000
O    -2.495000000     5.483000000     0.429000000
H    -2.231000000     5.804000000     1.291000000
H    -2.451000000     4.530000000     0.505000000
O     4.851000000    -5.617000000     2.359000000
H     5.706000000    -5.934000000     2.070000000
H     4.243000000    -5.915000000     1.682000000
O     5.761000000    -1.146000000     2.491000000
H     5.570000000    -1.923000000     3.017000000
H     5.214000000    -0.459000000     2.871000000
O     0.226000000     4.589000000     2.087000000
H     0.091000000     4.807000000     3.009000000
H    -0.505000000     4.013000000     1.867000000
O    -1.165000000    -4.280000000    -3.936000000
H    -0.307000000    -4.061000000    -3.574000000
H    -1.196000000    -3.819000000    -4.775000000
O     0.045000000     4.448000000    -1.032000000
H     0.678000000     3.856000000    -0.625000000
H    -0.519000000     4.727000000    -0.310000000
O    -4.770000000     3.909000000    -3.724000000
H    -5.609000000     3.604000000    -3.378000000
H    -4.136000000     3.691000000    -3.041000000
O     3.497000000    -6.457000000     0.330000000
H     3.141000000    -5.975000000    -0.416000000
H     3.632000000    -7.345000000    -0.001000000
O    -2.485000000    -5.230000000    -0.137000000
H    -1.631000000    -4.860000000     0.085000000
H    -2.283000000    -5.981000000    -0.696000000
O     1.640000000    -7.142000000     2.261000000
H     2.099000000    -6.654000000     1.577000000
H     0.973000000    -6.535000000     2.581000000
O     5.721000000     1.929000000    -3.414000000
H     6.649000000     1.990000000    -3.640000000
H     5.610000000     1.031000000    -3.101000000
O    -2.495000000     6.124000000    -2.239000000
H    -2.908000000     5.417000000    -2.735000000
H    -2.758000000     5.966000000    -1.333000000
O    -2.853000000     2.492000000     3.864000000
H    -2.556000000     2.710000000     2.981000000
H    -2.271000000     1.786000000     4.146000000
O    -0.366000000     2.860000000    -4.610000000
H     0.337000000     3.508000000    -4.568000000
H    -0.123000000     2.201000000    -3.960000000
O    -2.825000000     3.089000000    -2.134000000
H    -1.869000000     3.067000000    -2.187000000
H    -3.034000000     2.569000000    -1.358000000
O     4.999000000     1.666000000    -0.354000000
H     4.817000000     1.049000000    -1.063000000
H     5.949000000     1.631000000    -0.244000000
O    -2.163000000    -0.544000000    -4.092000000
H    -1.561000000    -0.993000000    -4.685000000
H    -1.686000000     0.239000000    -3.815000000
O     4.567000000    -3.551000000    -1.377000000
H     3.825000000    -3.947000000    -0.919000000
H     5.336000000    -3.859000000    -0.897000000
O    -5.776000000    -1.157000000     0.529000000
H    -5.924000000    -0.514000000    -0.165000000
H    -5.145000000    -1.772000000     0.155000000
