144
-2808.98502
O    -2.775000000     1.587000000    -6.248000000
H    -2.667000000     1.230000000    -5.367000000
H    -2.106000000     2.270000000    -6.313000000
O    -0.003000000    -4.880000000     0.830000000
H    -0.378000000    -5.654000000     1.250000000
H    -0.034000000    -4.202000000     1.504000000
O     0.632000000     6.266000000     0.985000000
H     1.324000000     6.925000000     0.925000000
H    -0.178000000     6.758000000     0.855000000
O     1.366000000    -3.267000000     6.462000000
H     1.946000000    -4.029000000     6.486000000
H     1.297000000    -3.047000000     5.533000000
O     1.261000000    -0.708000000    -3.330000000
H     1.012000000    -0.501000000    -2.429000000
H     1.897000000    -1.419000000    -3.245000000
O    -7.769000000     0.886000000    -1.939000000
H    -8.112000000     1.395000000    -1.204000000
H    -7.287000000     0.168000000    -1.528000000
O    -6.992000000    -0.321000000     1.555000000
H    -7.143000000    -1.184000000     1.941000000
H    -7.804000000     0.158000000     1.715000000
O    -1.665000000    -1.265000000     3.014000000
H    -2.604000000    -1.108000000     2.917000000
H    -1.575000000    -2.217000000     2.956000000
O    -3.372000000     3.997000000     1.850000000
H    -3.633000000     3.222000000     1.353000000
H    -2.710000000     3.677000000     2.463000000
O    -2.872000000     5.011000000    -4.481000000
H    -3.339000000     4.362000000    -3.955000000
H    -2.942000000     5.822000000    -3.977000000
O     3.549000000    -2.823000000    -3.036000000
H     3.793000000    -3.337000000    -2.266000000
H     4.384000000    -2.549000000    -3.415000000
O     2.480000000     1.775000000    -4.390000000
H     2.910000000     2.206000000    -3.651000000
H     2.066000000     1.001000000    -4.007000000
O     0.573000000     5.044000000     3.538000000
H     0.415000000     5.039000000     2.594000000
H    -0.258000000     4.761000000     3.921000000
O     4.019000000     3.416000000    -2.816000000
H     4.968000000     3.419000000    -2.684000000
H     3.678000000     3.970000000    -2.114000000
O    -4.413000000    -2.401000000     0.434000000
H    -4.717000000    -1.885000000    -0.313000000
H    -3.736000000    -2.972000000     0.071000000
O     4.052000000    -3.994000000    -0.589000000
H     3.445000000    -4.025000000     0.150000000
H     4.735000000    -4.626000000    -0.365000000
O     0.628000000    -3.529000000    -5.123000000
H     0.285000000    -3.021000000    -5.858000000
H     1.252000000    -2.941000000    -4.697000000
O    -1.593000000     3.436000000     4.153000000
H    -2.193000000     3.047000000     4.790000000
H    -1.064000000     2.701000000     3.843000000
O     1.537000000     4.238000000    -0.849000000
H     2.294000000     4.823000000    -0.865000000
H     1.133000000     4.393000000     0.005000000
O    -1.641000000    -4.222000000     3.779000000
H    -2.345000000    -4.664000000     3.304000000
H    -1.096000000    -4.933000000     4.115000000
O     2.537000000     0.561000000     5.385000000
H     3.260000000     0.339000000     4.798000000
H     2.351000000     1.481000000     5.198000000
O     0.862000000    -6.804000000    -1.306000000
H     0.747000000    -5.949000000    -0.892000000
H     1.798000000    -6.855000000    -1.495000000
O    -5.578000000    -3.376000000    -2.917000000
H    -6.062000000    -4.170000000    -3.145000000
H    -4.661000000    -3.603000000    -3.066000000
O    -6.713000000     4.031000000    -0.792000000
H    -6.725000000     4.586000000    -0.012000000
H    -7.405000000     3.388000000    -0.639000000
O     0.873000000    -1.380000000     4.368000000
H     1.498000000    -0.655000000     4.369000000
H     0.217000000    -1.130000000     3.718000000
O    -0.745000000     3.626000000    -5.429000000
H    -1.376000000     4.341000000    -5.343000000
H    -0.750000000     3.199000000    -4.572000000
O     5.071000000     0.232000000     3.673000000
H     5.713000000     0.777000000     4.127000000
H     5.199000000     0.432000000     2.746000000
O    -4.842000000    -2.110000000     3.060000000
H    -4.887000000    -1.195000000     3.339000000
H    -4.467000000    -2.073000000     2.180000000
O    -5.971000000    -0.754000000    -0.867000000
H    -5.279000000    -0.145000000    -1.125000000
H    -6.216000000    -0.478000000     0.016000000
O    -0.868000000     3.297000000    -2.533000000
H    -0.101000000     3.427000000    -1.974000000
H    -1.608000000     3.288000000    -1.925000000
O    -4.916000000     2.931000000    -2.580000000
H    -5.556000000     3.195000000    -1.918000000
H    -4.159000000     2.633000000    -2.076000000
O     3.987000000    -4.098000000     2.697000000
H     4.589000000    -4.842000000     2.670000000
H     4.554000000    -3.336000000     2.822000000
O    -3.124000000     5.084000000    -0.722000000
H    -3.406000000     5.178000000     0.188000000
H    -3.067000000     4.138000000    -0.859000000
O     2.914000000     3.431000000     4.624000000
H     2.546000000     4.180000000     5.093000000
H     2.828000000     3.662000000     3.699000000
O    -6.478000000     1.632000000    -4.220000000
H    -6.950000000     0.968000000    -3.718000000
H    -6.143000000     2.238000000    -3.559000000
O     1.403000000    -4.007000000     3.326000000
H     1.517000000    -3.163000000     3.762000000
H     2.283000000    -4.248000000     3.036000000
O     5.951000000     3.529000000     0.516000000
H     6.029000000     3.708000000    -0.421000000
H     5.390000000     4.230000000     0.848000000
O    -5.294000000     5.975000000    -3.085000000
H    -5.380000000     6.447000000    -2.257000000
H    -5.336000000     5.051000000    -2.840000000
O    -5.152000000     1.434000000     1.844000000
H    -5.697000000     0.679000000     1.624000000
H    -4.512000000     1.482000000     1.133000000
O    -0.755000000     1.164000000     3.006000000
H    -0.285000000     1.301000000     2.184000000
H    -1.131000000     0.287000000     2.925000000
O    -4.298000000     0.281000000     4.233000000
H    -4.950000000     0.195000000     4.928000000
H    -4.602000000     1.023000000     3.710000000
O    -3.570000000    -0.031000000    -3.475000000
H    -3.540000000     0.180000000    -2.542000000
H    -4.454000000     0.215000000    -3.748000000
O     5.664000000     0.672000000     1.055000000
H     5.319000000     1.489000000     0.695000000
H     6.522000000     0.572000000     0.642000000
O    -2.780000000    -3.693000000    -3.266000000
H    -2.571000000    -4.572000000    -3.583000000
H    -2.353000000    -3.106000000    -3.890000000
O    -2.333000000    -1.631000000    -5.433000000
H    -1.683000000    -0.994000000    -5.729000000
H    -2.736000000    -1.223000000    -4.666000000
O    -0.042000000     6.087000000    -3.547000000
H    -0.467000000     5.378000000    -3.064000000
H     0.778000000     5.704000000    -3.860000000
O    -2.392000000    -4.178000000    -0.508000000
H    -1.477000000    -4.460000000    -0.483000000
H    -2.581000000    -4.062000000    -1.439000000
O     5.796000000    -2.498000000     4.178000000
H     6.743000000    -2.434000000     4.055000000
H     5.501000000    -1.590000000     4.245000000
