144
-2818.15864
O     1.113000000     7.836000000     0.330000000
H     1.209000000     7.238000000    -0.411000000
H     0.181000000     7.802000000     0.546000000
O     4.224000000    -1.483000000     4.648000000
H     4.753000000    -0.706000000     4.828000000
H     4.230000000    -1.561000000     3.694000000
O     3.197000000    -3.890000000    -0.418000000
H     3.357000000    -4.725000000    -0.857000000
H     2.702000000    -4.124000000     0.368000000
O     2.612000000     5.945000000     4.565000000
H     2.117000000     5.741000000     3.771000000
H     2.366000000     6.846000000     4.776000000
O    -1.867000000     4.753000000    -0.085000000
H    -2.007000000     5.518000000     0.472000000
H    -1.025000000     4.399000000     0.200000000
O    -2.133000000    -3.846000000    -6.245000000
H    -1.889000000    -3.213000000    -5.570000000
H    -3.041000000    -3.630000000    -6.459000000
O    -5.111000000     0.396000000     0.862000000
H    -5.922000000     0.238000000     1.345000000
H    -4.679000000     1.101000000     1.344000000
O    -5.192000000    -2.446000000    -5.379000000
H    -4.675000000    -2.180000000    -4.619000000
H    -5.131000000    -3.401000000    -5.388000000
O     0.035000000    -5.388000000    -3.680000000
H    -0.676000000    -5.822000000    -4.150000000
H    -0.210000000    -5.459000000    -2.757000000
O     1.958000000     2.379000000    -5.254000000
H     2.716000000     1.826000000    -5.065000000
H     1.336000000     2.179000000    -4.554000000
O    -0.769000000    -5.860000000    -1.027000000
H    -1.135000000    -6.648000000    -1.429000000
H    -1.408000000    -5.615000000    -0.358000000
O    -4.995000000    -0.169000000    -2.090000000
H    -4.627000000     0.703000000    -2.232000000
H    -5.166000000    -0.207000000    -1.149000000
O     6.941000000     3.739000000     2.113000000
H     7.355000000     4.151000000     2.872000000
H     6.049000000     4.086000000     2.109000000
O    -4.701000000    -4.607000000    -2.750000000
H    -4.232000000    -3.776000000    -2.674000000
H    -4.264000000    -5.187000000    -2.126000000
O     0.149000000     1.312000000    -3.449000000
H    -0.488000000     1.723000000    -4.033000000
H    -0.275000000     1.318000000    -2.591000000
O     4.551000000    -1.624000000    -0.846000000
H     5.183000000    -1.720000000    -1.559000000
H     4.049000000    -2.439000000    -0.860000000
O    -2.718000000     5.031000000    -2.792000000
H    -1.990000000     5.404000000    -3.289000000
H    -2.403000000     5.006000000    -1.888000000
O    -3.200000000    -2.172000000     3.526000000
H    -2.459000000    -1.757000000     3.084000000
H    -3.412000000    -1.578000000     4.247000000
O     0.234000000     1.622000000     4.013000000
H     0.159000000     2.147000000     4.810000000
H     0.957000000     2.021000000     3.530000000
O     3.014000000     3.937000000     6.332000000
H     2.197000000     3.452000000     6.211000000
H     2.844000000     4.793000000     5.940000000
O     0.423000000     4.761000000    -3.569000000
H    -0.091000000     4.295000000    -4.228000000
H     1.197000000     5.068000000    -4.042000000
O    -1.158000000     4.700000000     3.218000000
H    -0.664000000     4.323000000     2.490000000
H    -1.320000000     5.606000000     2.954000000
O     0.238000000     3.845000000     5.547000000
H    -0.342000000     4.292000000     4.930000000
H    -0.086000000     4.102000000     6.410000000
O    -3.383000000    -2.111000000    -3.412000000
H    -2.508000000    -1.724000000    -3.413000000
H    -3.951000000    -1.417000000    -3.078000000
O     2.249000000     5.454000000     2.002000000
H     1.950000000     4.566000000     1.808000000
H     1.658000000     6.020000000     1.504000000
O     4.006000000     3.202000000    -0.178000000
H     3.547000000     3.122000000     0.658000000
H     3.834000000     2.373000000    -0.626000000
O    -1.054000000    -0.704000000     2.775000000
H    -1.105000000    -0.427000000     1.860000000
H    -0.292000000    -0.241000000     3.123000000
O    -3.987000000     3.054000000     1.577000000
H    -4.716000000     3.626000000     1.336000000
H    -3.252000000     3.369000000     1.050000000
O     4.166000000     1.217000000     3.429000000
H     3.648000000     2.017000000     3.335000000
H     3.959000000     0.705000000     2.647000000
O     3.229000000     6.137000000    -2.617000000
H     3.486000000     5.291000000    -2.984000000
H     2.589000000     5.919000000    -1.939000000
O     3.709000000     0.896000000    -1.673000000
H     2.782000000     0.977000000    -1.448000000
H     3.898000000    -0.037000000    -1.574000000
O    -0.471000000    -1.199000000    -4.541000000
H    -0.050000000    -0.555000000    -3.972000000
H     0.222000000    -1.828000000    -4.744000000
O    -3.520000000    -5.218000000    -0.027000000
H    -3.797000000    -4.359000000     0.290000000
H    -4.160000000    -5.827000000     0.340000000
O    -2.122000000     6.947000000     1.643000000
H    -2.981000000     7.259000000     1.360000000
H    -2.071000000     7.189000000     2.568000000
O    -2.942000000     0.616000000    -4.562000000
H    -3.858000000     0.699000000    -4.826000000
H    -2.522000000     0.167000000    -5.296000000
O    -2.932000000     2.703000000     4.140000000
H    -3.372000000     2.794000000     3.295000000
H    -2.066000000     3.087000000     4.002000000
O     4.954000000     5.686000000     1.760000000
H     4.055000000     5.428000000     1.964000000
H     5.015000000     5.607000000     0.808000000
O     1.468000000    -5.742000000     0.687000000
H     0.804000000    -5.498000000     0.042000000
H     1.538000000    -6.694000000     0.611000000
O    -4.905000000    -3.078000000     1.695000000
H    -5.036000000    -2.308000000     1.142000000
H    -4.213000000    -2.820000000     2.304000000
O    -4.005000000     2.300000000    -1.766000000
H    -4.611000000     2.914000000    -1.352000000
H    -3.529000000     2.827000000    -2.407000000
O     1.208000000    -3.319000000    -5.217000000
H     2.145000000    -3.158000000    -5.105000000
H     0.993000000    -3.960000000    -4.539000000
O     3.215000000    -5.515000000     2.863000000
H     2.712000000    -5.731000000     3.648000000
H     2.554000000    -5.386000000     2.183000000
O     4.754000000    -0.885000000     1.920000000
H     4.831000000    -1.264000000     1.045000000
H     5.536000000    -0.342000000     2.016000000
O     6.805000000     2.377000000    -1.159000000
H     6.912000000     1.666000000    -0.527000000
H     5.935000000     2.731000000    -0.976000000
O     0.925000000     5.595000000    -1.029000000
H     0.647000000     5.271000000    -1.886000000
H     0.857000000     4.834000000    -0.453000000
O    -1.871000000    -4.747000000     4.176000000
H    -1.104000000    -4.506000000     4.696000000
H    -2.258000000    -3.910000000     3.919000000
O    -1.784000000    -7.366000000     3.769000000
H    -1.752000000    -6.425000000     3.596000000
H    -2.567000000    -7.668000000     3.307000000
O     5.447000000     2.249000000     5.375000000
H     4.788000000     2.714000000     5.890000000
H     4.953000000     1.582000000     4.898000000
