144
-2808.99682
O     3.720000000    -6.404000000    -1.439000000
H     4.004000000    -5.577000000    -1.050000000
H     3.035000000    -6.154000000    -2.060000000
O    -0.286000000    -7.053000000     1.135000000
H     0.536000000    -7.468000000     0.873000000
H    -0.965000000    -7.583000000     0.718000000
O    -5.255000000     1.976000000     2.045000000
H    -5.418000000     1.364000000     1.327000000
H    -4.564000000     2.552000000     1.716000000
O     4.534000000     4.853000000     2.414000000
H     5.200000000     4.827000000     3.101000000
H     3.929000000     5.540000000     2.693000000
O     1.112000000     0.377000000     4.480000000
H     0.850000000     0.028000000     5.332000000
H     0.476000000     0.011000000     3.865000000
O    -3.690000000     4.247000000     0.001000000
H    -2.781000000     4.034000000     0.211000000
H    -3.645000000     5.112000000    -0.407000000
O    -2.722000000     5.918000000     3.387000000
H    -3.463000000     5.742000000     3.967000000
H    -2.137000000     6.470000000     3.907000000
O    -1.981000000     7.417000000    -2.815000000
H    -2.490000000     7.759000000    -3.550000000
H    -1.930000000     6.475000000    -2.977000000
O    -2.086000000     4.703000000    -3.551000000
H    -2.711000000     3.979000000    -3.538000000
H    -1.257000000     4.300000000    -3.810000000
O    -1.238000000     8.448000000    -0.457000000
H    -0.734000000     7.817000000     0.058000000
H    -1.423000000     7.993000000    -1.279000000
O    -2.451000000    -3.941000000     3.573000000
H    -1.533000000    -3.686000000     3.476000000
H    -2.419000000    -4.871000000     3.799000000
O    -3.722000000    -1.842000000    -1.456000000
H    -3.558000000    -2.004000000    -0.527000000
H    -4.417000000    -1.183000000    -1.466000000
O     6.649000000    -0.245000000     0.640000000
H     7.187000000    -1.034000000     0.578000000
H     5.927000000    -0.400000000     0.031000000
O    -0.658000000    -0.445000000    -5.521000000
H    -0.657000000     0.199000000    -4.813000000
H    -1.585000000    -0.605000000    -5.697000000
O    -1.009000000     6.231000000     1.124000000
H    -1.081000000     5.310000000     0.872000000
H    -1.623000000     6.329000000     1.852000000
O    -3.762000000     1.884000000    -4.052000000
H    -4.254000000     1.203000000    -4.511000000
H    -4.334000000     2.148000000    -3.331000000
O    -2.918000000    -3.993000000    -2.907000000
H    -3.206000000    -3.134000000    -2.599000000
H    -2.702000000    -4.473000000    -2.108000000
O     0.145000000    -3.520000000     3.421000000
H     0.782000000    -2.808000000     3.370000000
H     0.672000000    -4.303000000     3.582000000
O    -2.260000000    -5.451000000    -0.420000000
H    -1.479000000    -5.716000000     0.067000000
H    -2.914000000    -6.115000000    -0.201000000
O    -0.927000000     1.835000000    -3.977000000
H    -1.735000000     1.416000000    -3.678000000
H    -1.179000000     2.295000000    -4.778000000
O     3.106000000    -2.517000000     3.799000000
H     3.607000000    -2.338000000     4.595000000
H     2.775000000    -1.661000000     3.527000000
O     4.249000000     5.853000000    -1.305000000
H     3.373000000     5.592000000    -1.021000000
H     4.346000000     5.462000000    -2.173000000
O    -1.615000000     2.635000000     5.526000000
H    -1.193000000     3.165000000     6.202000000
H    -1.461000000     3.117000000     4.713000000
O     5.912000000    -5.008000000     0.978000000
H     6.476000000    -5.126000000     0.213000000
H     5.259000000    -4.367000000     0.697000000
O     4.150000000     0.334000000     2.684000000
H     4.250000000     1.144000000     2.184000000
H     3.712000000     0.603000000     3.491000000
O    -0.872000000    -0.363000000     2.999000000
H    -1.103000000    -1.176000000     2.549000000
H    -1.640000000     0.198000000     2.888000000
O    -3.355000000     0.656000000     3.648000000
H    -2.980000000     1.530000000     3.749000000
H    -4.183000000     0.802000000     3.190000000
O     0.999000000     3.168000000     3.939000000
H     0.822000000     3.389000000     3.024000000
H     0.698000000     2.264000000     4.029000000
O     4.340000000    -3.402000000    -1.166000000
H     4.195000000    -2.911000000    -0.357000000
H     4.836000000    -2.803000000    -1.724000000
O     2.105000000     5.568000000     4.731000000
H     1.970000000     6.272000000     4.096000000
H     1.698000000     4.801000000     4.329000000
O     3.998000000     1.606000000    -1.259000000
H     3.421000000     2.150000000    -1.796000000
H     4.015000000     2.043000000    -0.407000000
O    -6.298000000    -0.092000000    -1.275000000
H    -6.986000000    -0.206000000    -0.619000000
H    -6.152000000     0.853000000    -1.308000000
O     1.383000000     5.727000000    -0.580000000
H     1.381000000     6.399000000     0.101000000
H     1.044000000     4.944000000    -0.145000000
O     3.597000000     1.935000000     5.715000000
H     2.739000000     2.137000000     5.341000000
H     3.831000000     2.719000000     6.213000000
O     5.208000000    -0.627000000    -1.966000000
H     4.814000000     0.153000000    -1.577000000
H     6.033000000    -0.318000000    -2.341000000
O    -5.885000000     5.190000000     1.835000000
H    -5.395000000     4.771000000     1.127000000
H    -5.560000000     6.090000000     1.852000000
O    -2.409000000     3.321000000     2.925000000
H    -1.715000000     3.313000000     2.265000000
H    -2.639000000     4.245000000     3.020000000
O     4.257000000    -2.299000000     1.264000000
H     3.981000000    -2.534000000     2.150000000
H     4.441000000    -1.361000000     1.310000000
O     0.859000000    -7.444000000    -2.401000000
H     0.996000000    -7.357000000    -1.458000000
H    -0.078000000    -7.294000000    -2.522000000
O    -3.301000000    -2.952000000     1.033000000
H    -3.120000000    -3.139000000     1.954000000
H    -2.715000000    -3.535000000     0.551000000
O    -5.298000000     2.444000000    -1.225000000
H    -6.067000000     3.013000000    -1.250000000
H    -4.583000000     3.021000000    -0.952000000
O    -0.019000000    -4.268000000    -4.723000000
H     0.800000000    -3.787000000    -4.607000000
H    -0.637000000    -3.834000000    -4.134000000
O     1.454000000    -6.061000000     3.009000000
H     0.680000000    -6.195000000     2.461000000
H     2.193000000    -6.185000000     2.414000000
O     3.423000000    -3.398000000    -4.697000000
H     3.509000000    -4.292000000    -4.367000000
H     3.289000000    -2.866000000    -3.913000000
O     1.349000000     1.146000000    -2.514000000
H     0.591000000     1.610000000    -2.871000000
H     1.096000000     0.930000000    -1.616000000
O     2.355000000    -1.396000000    -3.149000000
H     3.016000000    -1.097000000    -2.524000000
H     1.665000000    -0.735000000    -3.103000000
O     3.562000000     2.874000000     0.897000000
H     3.955000000     3.581000000     1.410000000
H     2.619000000     3.002000000     0.995000000
O     6.568000000     0.445000000     3.875000000
H     5.920000000     0.054000000     3.288000000
H     6.998000000    -0.303000000     4.290000000
