144
-2810.97740
O     5.265000000    -1.015000000     2.238000000
H     5.165000000    -0.205000000     2.739000000
H     4.837000000    -0.833000000     1.401000000
O     4.130000000    -2.934000000    -1.160000000
H     4.112000000    -2.928000000    -2.117000000
H     3.334000000    -3.403000000    -0.909000000
O     0.886000000    -6.055000000     3.332000000
H     1.438000000    -6.510000000     3.967000000
H     0.404000000    -6.754000000     2.889000000
O     5.069000000     4.987000000     3.856000000
H     4.888000000     4.997000000     2.916000000
H     4.891000000     5.882000000     4.143000000
O    -2.525000000     5.266000000     0.693000000
H    -2.283000000     6.145000000     0.987000000
H    -1.690000000     4.804000000     0.610000000
O     1.485000000    -2.088000000     4.451000000
H     1.163000000    -2.057000000     5.352000000
H     1.695000000    -1.179000000     4.240000000
O    -5.960000000    -0.202000000     0.981000000
H    -6.074000000    -1.147000000     1.086000000
H    -5.551000000     0.082000000     1.799000000
O    -1.909000000     6.044000000     4.712000000
H    -1.163000000     5.630000000     4.279000000
H    -1.667000000     6.968000000     4.775000000
O    -0.188000000    -4.775000000    -4.915000000
H    -0.466000000    -5.620000000    -5.267000000
H    -0.842000000    -4.567000000    -4.248000000
O    -0.986000000    -6.707000000    -1.516000000
H    -1.256000000    -7.257000000    -2.251000000
H    -1.692000000    -6.799000000    -0.875000000
O     3.192000000    -6.620000000    -1.364000000
H     3.205000000    -5.753000000    -0.959000000
H     2.546000000    -7.112000000    -0.857000000
O    -5.040000000     1.423000000    -1.453000000
H    -5.215000000     2.344000000    -1.648000000
H    -5.361000000     1.302000000    -0.559000000
O    -4.662000000    -4.079000000    -1.221000000
H    -4.514000000    -3.211000000    -1.597000000
H    -4.565000000    -3.951000000    -0.278000000
O     6.788000000     2.645000000     2.546000000
H     5.992000000     2.262000000     2.914000000
H     6.812000000     2.327000000     1.644000000
O    -0.570000000     1.035000000    -4.833000000
H    -1.490000000     1.079000000    -4.574000000
H    -0.089000000     1.334000000    -4.061000000
O     1.529000000     0.157000000    -2.576000000
H     1.228000000     0.250000000    -1.672000000
H     1.329000000    -0.750000000    -2.803000000
O    -3.153000000     4.628000000    -1.996000000
H    -2.472000000     4.998000000    -2.558000000
H    -2.887000000     4.868000000    -1.109000000
O    -3.235000000    -0.440000000     2.115000000
H    -2.701000000    -0.380000000     2.906000000
H    -2.902000000     0.256000000     1.547000000
O     1.551000000     0.687000000     4.406000000
H     2.116000000     1.373000000     4.049000000
H     1.670000000     0.748000000     5.354000000
O     1.377000000    -3.678000000     2.382000000
H     0.964000000    -4.465000000     2.738000000
H     1.417000000    -3.072000000     3.122000000
O    -3.777000000    -6.767000000    -0.698000000
H    -4.302000000    -6.792000000     0.102000000
H    -4.091000000    -5.994000000    -1.167000000
O    -2.591000000    -5.066000000     4.748000000
H    -2.006000000    -4.380000000     4.424000000
H    -2.004000000    -5.726000000     5.117000000
O    -0.713000000     5.810000000    -3.514000000
H    -0.189000000     5.236000000    -4.073000000
H    -0.959000000     6.539000000    -4.083000000
O     0.627000000     5.580000000     2.658000000
H     0.824000000     6.409000000     2.220000000
H     0.633000000     4.931000000     1.955000000
O    -4.286000000    -1.424000000    -2.232000000
H    -5.198000000    -1.293000000    -2.494000000
H    -3.999000000    -0.564000000    -1.926000000
O     3.725000000     4.934000000     1.554000000
H     3.096000000     4.217000000     1.482000000
H     3.452000000     5.561000000     0.884000000
O     3.553000000     3.717000000    -1.211000000
H     3.163000000     3.477000000    -0.371000000
H     3.593000000     2.895000000    -1.701000000
O    -0.695000000    -0.149000000     3.382000000
H    -0.161000000    -0.364000000     2.617000000
H    -0.085000000     0.271000000     3.989000000
O     0.910000000     7.667000000     1.179000000
H     0.198000000     8.238000000     1.467000000
H     0.568000000     7.232000000     0.399000000
O    -4.539000000     3.902000000     1.918000000
H    -4.894000000     3.898000000     1.029000000
H    -3.734000000     4.416000000     1.851000000
O     2.307000000     3.189000000     3.592000000
H     2.382000000     4.142000000     3.638000000
H     2.093000000     3.009000000     2.677000000
O     3.912000000     6.354000000    -2.529000000
H     3.422000000     5.577000000    -2.259000000
H     4.666000000     6.008000000    -3.005000000
O     3.982000000     1.438000000    -3.026000000
H     4.048000000     1.817000000    -3.902000000
H     3.069000000     1.161000000    -2.952000000
O    -0.057000000    -1.697000000    -5.925000000
H    -0.319000000    -0.842000000    -5.585000000
H     0.437000000    -2.098000000    -5.210000000
O    -2.008000000    -3.785000000    -3.229000000
H    -1.551000000    -3.538000000    -2.425000000
H    -2.897000000    -3.996000000    -2.944000000
O    -2.038000000     7.611000000     2.066000000
H    -2.143000000     8.502000000     1.734000000
H    -1.410000000     7.695000000     2.784000000
O    -2.727000000     2.336000000    -3.931000000
H    -3.097000000     2.507000000    -3.065000000
H    -3.169000000     2.960000000    -4.507000000
O    -0.579000000     2.946000000     3.600000000
H     0.320000000     3.020000000     3.922000000
H    -0.655000000     3.637000000     2.942000000
O     6.279000000     4.595000000    -0.484000000
H     7.122000000     4.151000000    -0.405000000
H     5.648000000     3.889000000    -0.627000000
O     2.060000000    -4.462000000    -0.256000000
H     1.143000000    -4.612000000    -0.487000000
H     2.037000000    -4.212000000     0.668000000
O    -3.697000000    -3.077000000     1.132000000
H    -4.117000000    -3.386000000     1.934000000
H    -3.362000000    -2.209000000     1.355000000
O    -5.661000000     4.274000000    -0.833000000
H    -5.079000000     4.647000000    -1.495000000
H    -6.543000000     4.451000000    -1.161000000
O     1.118000000    -2.840000000    -3.584000000
H     1.990000000    -3.209000000    -3.446000000
H     0.614000000    -3.553000000    -3.977000000
O     3.392000000    -4.630000000     4.084000000
H     3.444000000    -5.578000000     4.206000000
H     2.734000000    -4.513000000     3.399000000
O     4.635000000    -0.115000000    -0.452000000
H     4.410000000    -0.992000000    -0.762000000
H     4.299000000     0.472000000    -1.129000000
O     0.364000000     6.236000000    -0.999000000
H    -0.125000000     6.057000000    -1.802000000
H     0.475000000     5.377000000    -0.590000000
O    -1.293000000    -2.971000000     3.654000000
H    -0.398000000    -3.070000000     3.331000000
H    -1.440000000    -2.025000000     3.666000000
O     4.704000000     1.505000000     3.463000000
H     4.724000000     1.129000000     4.343000000
H     3.864000000     1.961000000     3.416000000
