144
-2822.13366
O     2.473000000    -4.847000000     1.275000000
H     1.765000000    -4.957000000     0.640000000
H     2.365000000    -3.953000000     1.601000000
O    -5.388000000     1.894000000     1.767000000
H    -4.952000000     1.084000000     1.504000000
H    -5.491000000     2.386000000     0.952000000
O     2.537000000    -1.661000000    -4.031000000
H     3.385000000    -1.384000000    -3.685000000
H     1.954000000    -1.653000000    -3.272000000
O     3.290000000     6.474000000     3.052000000
H     2.540000000     6.391000000     2.462000000
H     3.251000000     7.379000000     3.362000000
O    -2.081000000    -3.148000000    -4.938000000
H    -2.727000000    -2.698000000    -4.394000000
H    -1.290000000    -3.174000000    -4.399000000
O     1.166000000    -1.642000000     4.892000000
H     0.769000000    -1.423000000     5.735000000
H     0.586000000    -1.245000000     4.243000000
O    -3.330000000     5.276000000     0.551000000
H    -2.594000000     4.794000000     0.929000000
H    -3.084000000     5.409000000    -0.364000000
O    -4.227000000    -0.913000000     1.269000000
H    -3.828000000    -1.759000000     1.473000000
H    -4.393000000    -0.947000000     0.327000000
O    -0.882000000     7.088000000     2.923000000
H    -1.731000000     7.529000000     2.938000000
H    -0.486000000     7.301000000     3.768000000
O    -2.407000000    -5.921000000    -3.111000000
H    -3.277000000    -6.045000000    -3.493000000
H    -2.564000000    -5.400000000    -2.323000000
O    -3.068000000     6.072000000    -3.803000000
H    -2.721000000     5.403000000    -3.213000000
H    -3.414000000     5.579000000    -4.547000000
O    -5.433000000    -1.147000000    -1.118000000
H    -6.224000000    -1.515000000    -0.725000000
H    -5.708000000    -0.297000000    -1.459000000
O    -0.257000000    -1.173000000    -3.748000000
H    -0.843000000    -0.602000000    -3.252000000
H     0.146000000    -0.597000000    -4.397000000
O     0.689000000     5.953000000     1.087000000
H     0.302000000     5.081000000     1.156000000
H     0.117000000     6.511000000     1.614000000
O    -2.424000000     3.804000000    -1.929000000
H    -1.714000000     3.812000000    -2.572000000
H    -1.982000000     3.712000000    -1.085000000
O    -3.657000000    -4.410000000    -1.116000000
H    -4.481000000    -4.715000000    -0.736000000
H    -3.068000000    -4.319000000    -0.367000000
O     2.002000000    -4.069000000     4.177000000
H     1.733000000    -3.170000000     4.371000000
H     2.957000000    -4.049000000     4.230000000
O    -2.522000000    -5.912000000     1.402000000
H    -1.716000000    -6.274000000     1.772000000
H    -2.928000000    -6.649000000     0.945000000
O    -0.665000000     4.646000000    -4.046000000
H    -1.370000000     4.622000000    -4.693000000
H     0.133000000     4.513000000    -4.558000000
O     1.135000000     4.541000000    -1.989000000
H     1.241000000     5.133000000    -1.244000000
H     0.385000000     4.894000000    -2.469000000
O     3.508000000     0.035000000     3.571000000
H     3.865000000    -0.721000000     3.105000000
H     2.884000000    -0.339000000     4.192000000
O     5.075000000     2.128000000     2.429000000
H     4.358000000     2.727000000     2.220000000
H     4.655000000     1.406000000     2.898000000
O    -0.410000000    -0.505000000     3.215000000
H    -0.465000000    -0.733000000     2.287000000
H    -1.035000000     0.212000000     3.324000000
O    -2.326000000     1.609000000     3.070000000
H    -2.451000000     2.535000000     3.278000000
H    -2.823000000     1.477000000     2.262000000
O     0.655000000     3.105000000     4.384000000
H     0.761000000     3.239000000     3.442000000
H     0.437000000     2.177000000     4.471000000
O     3.287000000    -4.953000000    -2.401000000
H     3.664000000    -5.368000000    -3.176000000
H     2.573000000    -5.535000000    -2.141000000
O     4.154000000    -1.974000000     1.379000000
H     4.718000000    -1.223000000     1.193000000
H     4.262000000    -2.548000000     0.621000000
O     0.785000000     4.568000000     6.817000000
H     0.983000000     5.492000000     6.664000000
H     0.583000000     4.220000000     5.949000000
O     5.276000000     1.892000000    -1.035000000
H     4.557000000     1.948000000    -1.665000000
H     5.045000000     2.522000000    -0.353000000
O    -3.665000000     1.264000000    -3.076000000
H    -2.840000000     0.886000000    -3.382000000
H    -3.409000000     2.076000000    -2.640000000
O     2.300000000     6.880000000    -0.966000000
H     1.843000000     6.915000000    -0.126000000
H     3.150000000     6.492000000    -0.761000000
O     3.359000000     3.950000000     5.269000000
H     3.190000000     4.249000000     4.376000000
H     2.553000000     3.504000000     5.529000000
O     1.118000000    -3.667000000    -5.240000000
H     1.742000000    -2.995000000    -4.967000000
H     0.892000000    -4.126000000    -4.431000000
O    -3.782000000     7.201000000     2.470000000
H    -3.686000000     6.545000000     1.780000000
H    -4.390000000     7.844000000     2.106000000
O    -1.054000000     1.945000000    -4.024000000
H    -0.690000000     2.819000000    -4.163000000
H    -0.909000000     1.490000000    -4.854000000
O    -1.841000000     4.256000000     3.322000000
H    -1.037000000     4.021000000     2.858000000
H    -1.886000000     5.209000000     3.254000000
O     6.233000000    -0.214000000     0.385000000
H     6.846000000     0.022000000     1.081000000
H     5.993000000     0.622000000    -0.017000000
O     1.474000000    -6.416000000    -0.924000000
H     1.981000000    -6.754000000    -0.186000000
H     1.006000000    -7.179000000    -1.263000000
O    -6.196000000     1.342000000    -1.989000000
H    -5.890000000     2.137000000    -1.552000000
H    -5.446000000     1.052000000    -2.508000000
O    -2.970000000    -3.379000000     2.129000000
H    -2.813000000    -3.239000000     3.062000000
H    -2.730000000    -4.293000000     1.980000000
O    -5.514000000     3.724000000    -0.590000000
H    -5.971000000     4.393000000    -1.100000000
H    -4.964000000     4.220000000     0.017000000
O     0.175000000    -5.038000000    -3.117000000
H     0.598000000    -5.778000000    -2.683000000
H    -0.721000000    -5.333000000    -3.276000000
O     4.393000000    -5.728000000     2.799000000
H     3.657000000    -5.279000000     2.383000000
H     3.993000000    -6.259000000     3.487000000
O    -4.054000000    -2.632000000    -3.148000000
H    -3.855000000    -3.327000000    -2.520000000
H    -4.504000000    -1.964000000    -2.631000000
O     4.834000000    -2.992000000    -0.999000000
H     4.311000000    -3.598000000    -1.523000000
H     5.147000000    -2.341000000    -1.627000000
O     2.533000000     2.226000000    -2.071000000
H     1.934000000     2.972000000    -2.049000000
H     1.980000000     1.469000000    -1.877000000
O     4.775000000    -0.340000000    -2.866000000
H     5.524000000    -0.069000000    -3.397000000
H     4.898000000     0.111000000    -2.030000000
O     2.976000000     3.801000000     2.039000000
H     3.060000000     4.738000000     1.858000000
H     2.086000000     3.583000000     1.764000000
