144
-2802.52164
O     2.296000000     6.344000000    -3.576000000
H     2.660000000     7.223000000    -3.684000000
H     1.933000000     6.344000000    -2.690000000
O    -1.953000000     1.001000000    -4.338000000
H    -2.018000000     1.580000000    -5.098000000
H    -2.063000000     1.582000000    -3.585000000
O     2.674000000     6.539000000     2.295000000
H     2.014000000     5.854000000     2.400000000
H     2.334000000     7.094000000     1.594000000
O    -0.876000000    -4.918000000     4.724000000
H    -1.127000000    -5.534000000     4.036000000
H    -0.543000000    -4.154000000     4.252000000
O     1.377000000     3.008000000    -4.260000000
H     1.043000000     3.330000000    -3.423000000
H     2.110000000     2.440000000    -4.023000000
O     3.262000000    -2.647000000     1.801000000
H     3.787000000    -3.174000000     2.402000000
H     3.109000000    -1.827000000     2.272000000
O     1.456000000     1.144000000     4.220000000
H     2.093000000     0.429000000     4.212000000
H     1.584000000     1.569000000     5.068000000
O    -1.640000000     3.127000000    -2.460000000
H    -0.741000000     3.303000000    -2.182000000
H    -2.060000000     2.748000000    -1.688000000
O     1.653000000    -4.716000000     0.689000000
H     2.004000000    -3.840000000     0.848000000
H     1.424000000    -4.717000000    -0.241000000
O    -2.974000000     0.007000000     5.208000000
H    -3.809000000     0.437000000     5.390000000
H    -2.351000000     0.435000000     5.795000000
O    -5.129000000     0.177000000    -3.116000000
H    -4.341000000    -0.176000000    -2.703000000
H    -5.395000000    -0.497000000    -3.741000000
O     6.299000000     4.866000000    -2.375000000
H     5.435000000     4.641000000    -2.718000000
H     6.647000000     4.039000000    -2.040000000
O     5.488000000     0.708000000     3.129000000
H     5.079000000     1.528000000     2.853000000
H     6.296000000     0.978000000     3.564000000
O    -5.386000000    -0.561000000     1.970000000
H    -4.695000000     0.095000000     1.877000000
H    -5.536000000    -0.878000000     1.080000000
O    -0.331000000     3.741000000    -6.119000000
H     0.296000000     3.541000000    -5.424000000
H    -0.658000000     4.615000000    -5.903000000
O     1.379000000     5.718000000    -1.045000000
H     1.400000000     4.761000000    -1.042000000
H     0.593000000     5.942000000    -0.547000000
O    -0.664000000     2.643000000     2.980000000
H    -0.025000000     2.259000000     3.580000000
H    -1.505000000     2.533000000     3.424000000
O     2.722000000    -6.403000000     3.168000000
H     2.825000000    -7.201000000     2.650000000
H     2.285000000    -5.789000000     2.578000000
O    -6.613000000    -4.230000000     0.845000000
H    -5.726000000    -4.069000000     1.166000000
H    -6.491000000    -4.531000000    -0.056000000
O    -4.800000000    -2.395000000     6.196000000
H    -5.550000000    -2.878000000     5.848000000
H    -4.278000000    -2.174000000     5.425000000
O    -5.668000000    -1.490000000    -0.471000000
H    -6.487000000    -1.624000000    -0.948000000
H    -5.023000000    -1.300000000    -1.151000000
O    -6.385000000    -3.706000000     4.152000000
H    -5.560000000    -3.725000000     3.667000000
H    -6.781000000    -4.561000000     3.984000000
O     6.441000000     2.431000000     0.982000000
H     6.777000000     3.060000000     1.621000000
H     5.787000000     2.922000000     0.484000000
O     1.854000000     8.157000000     0.325000000
H     2.368000000     8.688000000    -0.283000000
H     1.651000000     7.360000000    -0.165000000
O     0.007000000    -2.327000000     4.772000000
H     0.604000000    -2.194000000     5.508000000
H    -0.091000000    -1.459000000     4.382000000
O     0.382000000     4.741000000     1.562000000
H     0.018000000     4.080000000     2.150000000
H     1.098000000     4.293000000     1.112000000
O     3.563000000     2.567000000     2.700000000
H     3.005000000     2.837000000     1.971000000
H     2.950000000     2.323000000     3.393000000
O     4.484000000     4.834000000     0.059000000
H     3.743000000     4.263000000     0.266000000
H     4.555000000     4.797000000    -0.895000000
O     3.537000000     4.023000000    -2.431000000
H     3.333000000     4.861000000    -2.847000000
H     2.683000000     3.654000000    -2.205000000
O    -3.270000000    -5.154000000    -1.713000000
H    -2.443000000    -5.116000000    -2.192000000
H    -3.114000000    -5.789000000    -1.014000000
O    -2.792000000    -2.321000000     3.894000000
H    -2.921000000    -1.456000000     4.284000000
H    -1.852000000    -2.366000000     3.718000000
O     1.296000000    -0.299000000    -5.211000000
H     1.945000000    -0.066000000    -4.547000000
H     1.723000000    -0.100000000    -6.044000000
O     4.729000000     7.985000000     0.202000000
H     5.470000000     7.525000000    -0.193000000
H     4.140000000     7.287000000     0.488000000
O     1.373000000    -3.287000000    -1.610000000
H     1.353000000    -2.400000000    -1.250000000
H     0.565000000    -3.357000000    -2.118000000
O     3.390000000    -0.767000000     3.954000000
H     3.944000000    -0.089000000     3.567000000
H     3.944000000    -1.179000000     4.617000000
O    -3.755000000     3.901000000    -4.353000000
H    -3.409000000     4.188000000    -5.198000000
H    -3.028000000     3.432000000    -3.944000000
O    -1.921000000    -6.806000000     2.594000000
H    -1.878000000    -7.659000000     3.028000000
H    -1.799000000    -7.004000000     1.666000000
O    -4.061000000    -4.610000000     3.205000000
H    -3.401000000    -5.270000000     2.994000000
H    -3.556000000    -3.831000000     3.437000000
O    -2.886000000    -7.436000000    -0.185000000
H    -3.539000000    -7.620000000     0.490000000
H    -2.595000000    -8.299000000    -0.480000000
O    -2.417000000     4.574000000     0.901000000
H    -2.863000000     3.763000000     1.145000000
H    -1.486000000     4.355000000     0.932000000
O    -2.158000000     1.655000000     0.309000000
H    -1.517000000     0.954000000     0.191000000
H    -2.245000000     1.742000000     1.258000000
O    -0.858000000    -3.818000000    -3.313000000
H    -1.087000000    -2.972000000    -3.697000000
H    -0.798000000    -4.412000000    -4.061000000
O    -1.059000000    -1.433000000    -4.430000000
H    -0.147000000    -1.254000000    -4.659000000
H    -1.433000000    -0.571000000    -4.245000000
O     5.978000000     4.128000000     3.660000000
H     6.030000000     3.428000000     4.311000000
H     5.083000000     4.074000000     3.323000000
O     3.009000000     1.008000000    -3.376000000
H     3.031000000     0.734000000    -2.459000000
H     3.930000000     1.082000000    -3.626000000
O     3.552000000    -0.379000000    -1.009000000
H     3.945000000     0.089000000    -0.273000000
H     3.883000000    -1.273000000    -0.930000000
O     2.940000000     5.312000000    -5.825000000
H     2.466000000     4.481000000    -5.808000000
H     2.649000000     5.770000000    -5.036000000
O    -3.701000000    -2.275000000    -2.715000000
H    -3.366000000    -3.117000000    -2.407000000
H    -4.118000000    -2.476000000    -3.553000000
