144
-2799.02767
O    -2.627000000     5.331000000    -2.720000000
H    -1.982000000     4.930000000    -3.303000000
H    -2.217000000     5.306000000    -1.856000000
O     3.602000000     2.749000000    -5.021000000
H     4.555000000     2.708000000    -4.940000000
H     3.281000000     2.078000000    -4.418000000
O     6.392000000    -0.037000000    -0.413000000
H     7.183000000    -0.188000000     0.106000000
H     6.274000000    -0.847000000    -0.909000000
O    -2.918000000     7.353000000    -0.227000000
H    -2.333000000     6.612000000    -0.389000000
H    -2.558000000     8.063000000    -0.759000000
O    -3.075000000    -1.073000000     3.298000000
H    -2.520000000    -1.836000000     3.136000000
H    -2.710000000    -0.674000000     4.088000000
O     4.661000000     1.886000000     1.009000000
H     5.509000000     2.330000000     1.015000000
H     4.878000000     0.955000000     0.958000000
O    -5.852000000     5.473000000     2.254000000
H    -5.820000000     6.226000000     1.664000000
H    -4.935000000     5.282000000     2.449000000
O     0.556000000     6.188000000     2.628000000
H     1.159000000     6.233000000     1.885000000
H     0.335000000     5.259000000     2.700000000
O     5.113000000    -0.894000000     3.332000000
H     5.666000000    -1.045000000     4.099000000
H     5.561000000    -1.350000000     2.620000000
O     6.660000000    -2.460000000    -1.787000000
H     6.716000000    -3.416000000    -1.788000000
H     7.571000000    -2.168000000    -1.771000000
O    -1.164000000     5.293000000    -0.468000000
H    -1.511000000     4.529000000    -0.008000000
H    -0.361000000     5.513000000     0.006000000
O     3.724000000     0.445000000    -3.498000000
H     3.882000000     0.940000000    -2.694000000
H     3.840000000    -0.470000000    -3.242000000
O    -1.371000000     2.384000000     5.622000000
H    -1.496000000     2.662000000     4.714000000
H    -0.471000000     2.060000000     5.651000000
O    -1.997000000    -3.746000000     3.531000000
H    -2.565000000    -4.511000000     3.620000000
H    -1.149000000    -4.107000000     3.271000000
O     4.923000000    -5.635000000     1.554000000
H     5.261000000    -6.405000000     2.013000000
H     5.223000000    -5.745000000     0.651000000
O     2.722000000    -4.205000000    -3.088000000
H     2.012000000    -4.847000000    -3.065000000
H     2.673000000    -3.763000000    -2.241000000
O     0.379000000    -4.143000000     2.168000000
H     1.106000000    -3.557000000     1.958000000
H     0.789000000    -4.878000000     2.624000000
O    -6.709000000    -2.438000000     1.741000000
H    -6.027000000    -3.065000000     1.502000000
H    -6.263000000    -1.591000000     1.751000000
O     1.202000000    -1.656000000     4.788000000
H     1.642000000    -0.985000000     4.266000000
H     1.747000000    -2.436000000     4.685000000
O    -3.319000000     4.608000000     2.748000000
H    -2.583000000     5.191000000     2.934000000
H    -2.959000000     3.949000000     2.154000000
O    -4.884000000    -0.189000000     1.604000000
H    -4.319000000     0.346000000     1.046000000
H    -4.299000000    -0.534000000     2.278000000
O     1.860000000    -1.843000000    -6.712000000
H     1.356000000    -1.642000000    -5.924000000
H     2.162000000    -0.991000000    -7.026000000
O     2.032000000     3.923000000    -1.604000000
H     2.971000000     3.819000000    -1.760000000
H     1.621000000     3.282000000    -2.185000000
O     0.436000000    -1.566000000    -4.011000000
H     0.332000000    -2.277000000    -3.378000000
H    -0.248000000    -0.937000000    -3.779000000
O    -1.437000000     0.280000000    -3.664000000
H    -2.188000000     0.197000000    -3.076000000
H    -1.803000000     0.644000000    -4.470000000
O     2.214000000    -6.140000000     2.972000000
H     2.968000000    -5.870000000     2.449000000
H     1.734000000    -6.744000000     2.407000000
O    -5.946000000     0.424000000     4.188000000
H    -5.711000000     0.490000000     3.262000000
H    -5.149000000     0.675000000     4.655000000
O     2.690000000     3.615000000     2.234000000
H     1.766000000     3.391000000     2.125000000
H     3.160000000     2.932000000     1.756000000
O    -6.308000000     0.700000000    -0.691000000
H    -5.566000000     0.427000000    -1.231000000
H    -6.024000000     0.532000000     0.208000000
O     0.174000000    -5.128000000    -2.858000000
H    -0.268000000    -5.075000000    -3.705000000
H    -0.369000000    -5.724000000    -2.342000000
O     1.393000000     6.139000000    -0.174000000
H     2.284000000     6.445000000    -0.006000000
H     1.507000000     5.343000000    -0.694000000
O     0.376000000     0.798000000     3.189000000
H     1.333000000     0.755000000     3.199000000
H     0.114000000     0.149000000     2.536000000
O    -1.478000000    -5.084000000     0.343000000
H    -0.932000000    -4.779000000     1.068000000
H    -0.885000000    -5.603000000    -0.201000000
O     3.202000000    -4.433000000    -5.761000000
H     2.585000000    -3.900000000    -6.262000000
H     3.019000000    -4.215000000    -4.847000000
O     2.780000000     0.158000000     3.654000000
H     2.965000000     0.841000000     4.299000000
H     3.642000000    -0.148000000     3.374000000
O    -4.412000000     3.459000000    -3.269000000
H    -3.822000000     4.210000000    -3.201000000
H    -4.698000000     3.461000000    -4.182000000
O    -3.858000000     0.883000000    -2.159000000
H    -3.565000000     1.207000000    -1.308000000
H    -3.918000000     1.666000000    -2.707000000
O     4.757000000    -2.280000000    -3.945000000
H     5.330000000    -2.288000000    -3.179000000
H     4.135000000    -2.991000000    -3.787000000
O     0.786000000     2.061000000    -3.048000000
H     0.578000000     1.343000000    -2.450000000
H    -0.042000000     2.254000000    -3.488000000
O    -4.554000000    -4.370000000     0.637000000
H    -3.653000000    -4.391000000     0.314000000
H    -4.921000000    -5.215000000     0.376000000
O    -5.973000000     2.687000000     1.577000000
H    -5.043000000     2.462000000     1.616000000
H    -6.047000000     3.489000000     2.094000000
O    -5.188000000     4.176000000    -0.855000000
H    -4.922000000     4.108000000    -1.772000000
H    -4.845000000     3.382000000    -0.446000000
O     2.959000000    -3.280000000     2.881000000
H     3.360000000    -2.414000000     2.800000000
H     3.552000000    -3.766000000     3.454000000
O    -0.139000000     3.638000000     2.791000000
H    -0.796000000     3.407000000     2.134000000
H     0.033000000     2.820000000     3.257000000
O     6.087000000    -2.850000000     1.763000000
H     5.581000000    -3.653000000     1.633000000
H     6.913000000    -3.011000000     1.306000000
O    -8.109000000     3.648000000    -0.097000000
H    -8.205000000     2.699000000    -0.187000000
H    -7.188000000     3.774000000     0.131000000
O     4.265000000     2.443000000    -1.646000000
H     4.280000000     2.280000000    -0.703000000
H     5.078000000     2.918000000    -1.820000000
O    -4.349000000    -0.984000000    -4.397000000
H    -3.737000000    -1.573000000    -3.956000000
H    -5.021000000    -0.801000000    -3.739000000
