144
-2822.90328
O     5.804000000     2.655000000     1.650000000
H     5.272000000     2.929000000     0.903000000
H     6.593000000     3.195000000     1.594000000
O     0.575000000     5.589000000     1.254000000
H    -0.059000000     5.960000000     0.641000000
H     0.041000000     5.123000000     1.898000000
O    -4.738000000    -1.551000000    -3.110000000
H    -4.583000000    -1.798000000    -2.198000000
H    -5.544000000    -2.010000000    -3.348000000
O    -5.227000000    -2.530000000     4.062000000
H    -5.112000000    -3.329000000     3.548000000
H    -5.729000000    -2.808000000     4.828000000
O     3.736000000     4.532000000    -3.027000000
H     4.189000000     5.165000000    -3.585000000
H     3.062000000     4.153000000    -3.592000000
O    -0.426000000     4.883000000    -2.883000000
H    -1.212000000     4.529000000    -2.466000000
H    -0.160000000     4.206000000    -3.505000000
O    -5.659000000    -5.616000000    -0.005000000
H    -6.130000000    -6.320000000    -0.449000000
H    -4.988000000    -5.344000000    -0.631000000
O    -1.489000000    -4.033000000     3.536000000
H    -1.346000000    -4.950000000     3.305000000
H    -1.704000000    -3.607000000     2.706000000
O    -4.263000000     1.006000000    -5.971000000
H    -4.077000000     1.336000000    -6.850000000
H    -3.559000000     0.382000000    -5.795000000
O    -1.539000000     2.450000000    -5.038000000
H    -1.877000000     3.281000000    -5.372000000
H    -2.083000000     2.260000000    -4.274000000
O    -2.166000000     2.825000000     0.174000000
H    -1.794000000     2.170000000    -0.416000000
H    -3.095000000     2.601000000     0.227000000
O     0.505000000    -4.665000000    -3.954000000
H     1.188000000    -4.272000000    -4.497000000
H    -0.254000000    -4.095000000    -4.073000000
O     5.396000000    -2.466000000     1.271000000
H     4.711000000    -1.824000000     1.085000000
H     6.155000000    -1.941000000     1.524000000
O     4.721000000    -0.051000000    -1.909000000
H     5.412000000     0.444000000    -2.349000000
H     4.055000000    -0.183000000    -2.583000000
O    -0.547000000    -6.844000000     2.755000000
H    -0.597000000    -6.294000000     1.974000000
H    -1.047000000    -7.628000000     2.528000000
O     2.606000000    -0.606000000    -3.574000000
H     1.711000000    -0.414000000    -3.856000000
H     3.151000000    -0.358000000    -4.321000000
O    -1.222000000     6.723000000    -0.540000000
H    -1.206000000     7.597000000    -0.931000000
H    -0.982000000     6.136000000    -1.257000000
O     3.860000000     6.191000000     0.313000000
H     2.967000000     5.849000000     0.363000000
H     3.934000000     6.536000000    -0.577000000
O    -5.135000000    -2.865000000    -0.105000000
H    -4.216000000    -3.065000000    -0.286000000
H    -5.554000000    -3.722000000    -0.023000000
O    -0.967000000     0.409000000     4.063000000
H    -1.648000000     0.600000000     3.417000000
H    -0.383000000     1.166000000     4.026000000
O    -6.018000000     0.997000000    -3.773000000
H    -5.493000000     1.064000000    -4.571000000
H    -5.784000000     0.145000000    -3.404000000
O     4.154000000     0.158000000     3.914000000
H     5.095000000     0.286000000     3.796000000
H     3.817000000     0.023000000     3.028000000
O     3.072000000     0.853000000     6.473000000
H     3.437000000     0.519000000     5.654000000
H     2.415000000     0.203000000     6.725000000
O    -5.479000000    -4.909000000     2.443000000
H    -5.332000000    -5.441000000     1.660000000
H    -6.246000000    -5.303000000     2.859000000
O     4.366000000     3.369000000     4.083000000
H     4.831000000     2.855000000     4.743000000
H     4.574000000     2.939000000     3.254000000
O    -3.108000000     1.789000000    -2.771000000
H    -3.144000000     1.143000000    -2.067000000
H    -3.985000000     1.775000000    -3.154000000
O    -3.699000000    -4.980000000    -1.730000000
H    -3.222000000    -5.355000000    -2.470000000
H    -3.205000000    -4.194000000    -1.499000000
O     3.656000000    -0.493000000     0.693000000
H     3.872000000    -0.461000000    -0.239000000
H     2.699000000    -0.499000000     0.717000000
O     4.850000000     3.312000000    -0.776000000
H     4.276000000     3.247000000    -1.540000000
H     5.063000000     4.243000000    -0.716000000
O    -3.002000000    -1.271000000    -5.493000000
H    -3.617000000    -1.428000000    -4.777000000
H    -2.142000000    -1.452000000    -5.113000000
O     1.696000000     3.846000000    -4.447000000
H     1.572000000     2.898000000    -4.386000000
H     1.460000000     4.061000000    -5.349000000
O    -1.159000000    -5.361000000     0.849000000
H    -1.113000000    -5.537000000    -0.091000000
H    -1.620000000    -4.525000000     0.914000000
O    -0.806000000    -5.999000000    -1.724000000
H    -0.149000000    -6.644000000    -1.462000000
H    -0.450000000    -5.603000000    -2.519000000
O     0.176000000     0.173000000    -4.943000000
H     0.519000000     0.332000000    -5.822000000
H    -0.648000000     0.658000000    -4.915000000
O    -3.758000000    -4.783000000    -4.744000000
H    -3.844000000    -5.689000000    -4.448000000
H    -4.601000000    -4.381000000    -4.535000000
O     6.134000000     2.062000000    -2.949000000
H     5.475000000     2.429000000    -2.359000000
H     6.916000000     2.590000000    -2.792000000
O     0.320000000     2.898000000     4.151000000
H     1.158000000     3.022000000     3.707000000
H     0.315000000     3.562000000     4.842000000
O    -2.975000000     1.704000000     2.658000000
H    -2.984000000     1.925000000     1.727000000
H    -3.364000000     0.831000000     2.701000000
O     2.138000000    -4.128000000     4.116000000
H     1.988000000    -4.057000000     3.173000000
H     1.554000000    -3.476000000     4.501000000
O    -1.799000000    -3.025000000    -3.640000000
H    -2.088000000    -2.939000000    -2.732000000
H    -2.479000000    -3.554000000    -4.058000000
O    -1.563000000     4.376000000     2.583000000
H    -1.305000000     3.864000000     3.350000000
H    -1.788000000     3.721000000     1.923000000
O    -4.120000000     0.352000000    -0.513000000
H    -4.696000000    -0.359000000    -0.230000000
H    -4.671000000     1.133000000    -0.481000000
O     6.831000000    -0.299000000     0.136000000
H     6.029000000     0.188000000     0.324000000
H     6.672000000    -0.704000000    -0.716000000
O     1.607000000    -2.608000000    -1.464000000
H     1.164000000    -3.085000000    -2.165000000
H     2.017000000    -1.862000000    -1.903000000
O    -6.698000000    -1.921000000     1.799000000
H    -5.851000000    -1.940000000     1.354000000
H    -6.491000000    -2.090000000     2.718000000
O     0.167000000    -2.242000000     5.000000000
H     0.059000000    -1.531000000     4.369000000
H    -0.596000000    -2.804000000     4.861000000
O     1.354000000    -3.661000000     0.937000000
H     0.549000000    -4.172000000     0.848000000
H     1.481000000    -3.262000000     0.076000000
O    -3.745000000    -1.113000000     2.260000000
H    -4.185000000    -1.546000000     2.992000000
H    -3.017000000    -1.694000000     2.040000000
