144
-2815.25724
O    -0.699000000    -1.391000000    -5.597000000
H     0.224000000    -1.616000000    -5.474000000
H    -1.079000000    -1.456000000    -4.721000000
O     5.421000000     2.183000000     4.600000000
H     6.288000000     2.230000000     4.196000000
H     5.029000000     1.390000000     4.233000000
O     5.772000000     3.584000000     0.505000000
H     6.236000000     3.141000000    -0.205000000
H     6.361000000     4.291000000     0.771000000
O     4.745000000     2.361000000    -3.390000000
H     4.837000000     2.273000000    -2.441000000
H     4.212000000     3.148000000    -3.506000000
O    -5.178000000     1.702000000    -1.585000000
H    -4.898000000     0.962000000    -1.047000000
H    -5.425000000     2.378000000    -0.954000000
O    -0.158000000    -1.852000000     5.954000000
H    -0.342000000    -0.913000000     5.972000000
H     0.578000000    -1.940000000     5.349000000
O    -4.834000000    -2.942000000    -2.537000000
H    -4.892000000    -3.644000000    -3.185000000
H    -3.900000000    -2.873000000    -2.342000000
O     4.616000000     0.356000000    -0.195000000
H     5.531000000     0.203000000    -0.431000000
H     4.582000000     1.284000000     0.038000000
O    -3.604000000     0.580000000    -3.758000000
H    -4.114000000     0.588000000    -2.948000000
H    -2.939000000    -0.094000000    -3.615000000
O    -4.018000000    -6.675000000    -0.489000000
H    -4.704000000    -6.502000000     0.156000000
H    -3.351000000    -6.010000000    -0.313000000
O     1.016000000     1.135000000     8.156000000
H     0.987000000     0.796000000     7.262000000
H     1.274000000     0.383000000     8.690000000
O     0.534000000    -3.021000000    -3.736000000
H    -0.141000000    -2.561000000    -3.237000000
H     0.773000000    -3.766000000    -3.186000000
O    -2.310000000    -3.499000000    -6.036000000
H    -1.699000000    -4.070000000    -5.570000000
H    -1.900000000    -2.635000000    -6.008000000
O     4.108000000    -0.438000000     3.850000000
H     4.036000000    -1.191000000     4.437000000
H     4.449000000    -0.803000000     3.033000000
O    -5.016000000    -0.613000000    -0.408000000
H    -4.745000000    -0.847000000     0.480000000
H    -4.472000000    -1.160000000    -0.976000000
O    -5.393000000    -4.173000000    -0.060000000
H    -4.896000000    -3.843000000    -0.810000000
H    -4.818000000    -4.026000000     0.691000000
O     0.238000000     4.946000000     0.101000000
H     0.305000000     4.976000000    -0.854000000
H     1.139000000     4.833000000     0.401000000
O     1.434000000     5.235000000     5.321000000
H     1.615000000     6.007000000     4.785000000
H     0.544000000     4.979000000     5.079000000
O     1.030000000    -5.635000000     1.610000000
H     0.763000000    -6.310000000     0.986000000
H     0.250000000    -5.094000000     1.726000000
O     3.843000000     4.470000000     3.458000000
H     4.251000000     3.626000000     3.653000000
H     3.230000000     4.612000000     4.179000000
O     3.094000000     4.694000000     0.449000000
H     3.661000000     3.927000000     0.376000000
H     3.246000000     5.021000000     1.336000000
O    -2.628000000     1.936000000     0.195000000
H    -2.714000000     2.310000000    -0.682000000
H    -2.080000000     1.161000000     0.072000000
O     2.616000000    -1.717000000    -1.291000000
H     3.384000000    -1.151000000    -1.220000000
H     1.894000000    -1.185000000    -0.957000000
O    -4.419000000     1.825000000    -5.901000000
H    -4.149000000     1.184000000    -5.244000000
H    -4.232000000     2.673000000    -5.500000000
O     1.582000000    -2.723000000     3.481000000
H     1.846000000    -3.636000000     3.368000000
H     2.235000000    -2.358000000     4.079000000
O    -3.057000000     0.135000000     5.372000000
H    -2.128000000     0.363000000     5.324000000
H    -3.510000000     0.904000000     5.026000000
O    -1.184000000    -3.771000000     2.915000000
H    -1.024000000    -4.134000000     3.786000000
H    -0.409000000    -3.239000000     2.732000000
O    -0.299000000     4.173000000    -2.827000000
H    -0.360000000     4.645000000    -3.658000000
H    -1.140000000     3.724000000    -2.744000000
O    -0.421000000     0.765000000     5.290000000
H     0.499000000     0.896000000     5.061000000
H    -0.759000000     1.648000000     5.437000000
O     5.157000000     0.018000000    -4.791000000
H     4.849000000     0.760000000    -4.272000000
H     4.484000000    -0.653000000    -4.674000000
O    -5.228000000    -2.032000000    -6.792000000
H    -5.461000000    -2.895000000    -6.450000000
H    -4.288000000    -1.955000000    -6.627000000
O     2.263000000    -4.465000000    -1.824000000
H     2.401000000    -3.554000000    -1.565000000
H     2.352000000    -4.961000000    -1.010000000
O    -2.867000000     3.183000000    -2.450000000
H    -3.290000000     2.705000000    -3.163000000
H    -3.394000000     3.976000000    -2.347000000
O    -2.134000000    -4.713000000    -0.234000000
H    -1.565000000    -4.486000000     0.502000000
H    -2.223000000    -3.898000000    -0.728000000
O    -4.054000000    -3.930000000     2.379000000
H    -3.219000000    -4.194000000     2.764000000
H    -4.684000000    -4.570000000     2.712000000
O    -1.068000000     3.267000000     2.079000000
H    -1.800000000     2.857000000     1.617000000
H    -0.667000000     3.843000000     1.428000000
O    -4.455000000    -1.336000000     2.039000000
H    -4.272000000    -2.274000000     1.991000000
H    -3.749000000    -0.981000000     2.578000000
O    -1.144000000     3.618000000     4.870000000
H    -1.002000000     3.273000000     3.989000000
H    -2.042000000     3.948000000     4.856000000
O    -1.377000000    -6.751000000    -3.837000000
H    -1.699000000    -6.139000000    -4.499000000
H    -2.154000000    -7.237000000    -3.562000000
O    -1.483000000    -4.373000000     5.775000000
H    -1.084000000    -3.510000000     5.665000000
H    -1.396000000    -4.559000000     6.710000000
O     2.334000000     1.263000000     5.249000000
H     2.744000000     2.127000000     5.304000000
H     2.597000000     0.928000000     4.392000000
O    -6.157000000    -0.910000000    -3.733000000
H    -5.793000000    -0.072000000    -3.449000000
H    -5.532000000    -1.562000000    -3.417000000
O    -2.705000000    -0.724000000    -7.521000000
H    -3.168000000     0.026000000    -7.148000000
H    -2.013000000    -0.917000000    -6.888000000
O    -0.741000000    -7.031000000     0.041000000
H    -0.679000000    -7.789000000    -0.541000000
H    -1.458000000    -6.510000000    -0.319000000
O    -4.684000000    -5.335000000    -4.207000000
H    -4.632000000    -6.009000000    -3.530000000
H    -4.092000000    -5.639000000    -4.895000000
O     4.549000000    -1.984000000     1.619000000
H     4.847000000    -2.768000000     1.158000000
H     4.409000000    -1.338000000     0.927000000
O     2.458000000    -2.214000000    -5.405000000
H     2.190000000    -2.328000000    -6.317000000
H     1.769000000    -2.642000000    -4.897000000
O     2.455000000     3.967000000    -3.508000000
H     2.363000000     4.778000000    -4.008000000
H     1.564000000     3.753000000    -3.232000000
