144
-2812.23127
O     3.607000000     2.714000000     3.502000000
H     4.207000000     2.009000000     3.258000000
H     3.825000000     3.431000000     2.906000000
O     6.240000000     4.044000000     1.756000000
H     6.636000000     3.179000000     1.863000000
H     5.891000000     4.039000000     0.864000000
O    -3.821000000    -3.083000000    -3.801000000
H    -3.143000000    -3.508000000    -4.326000000
H    -3.339000000    -2.599000000    -3.132000000
O    -7.286000000     2.440000000    -2.420000000
H    -7.941000000     2.235000000    -3.088000000
H    -6.804000000     1.622000000    -2.298000000
O     2.164000000     6.450000000    -0.771000000
H     1.653000000     5.642000000    -0.802000000
H     1.635000000     7.049000000    -0.243000000
O    -5.966000000     0.136000000    -2.230000000
H    -5.141000000    -0.013000000    -1.768000000
H    -6.499000000    -0.632000000    -2.022000000
O    -5.295000000     3.095000000    -4.358000000
H    -5.858000000     3.256000000    -3.601000000
H    -4.435000000     3.417000000    -4.089000000
O    -0.650000000     0.675000000    -4.055000000
H    -1.041000000     0.402000000    -3.226000000
H    -0.614000000    -0.126000000    -4.579000000
O    -2.887000000    -4.286000000     1.399000000
H    -3.272000000    -4.485000000     0.546000000
H    -3.631000000    -4.028000000     1.943000000
O    -4.386000000    -4.199000000    -0.887000000
H    -4.743000000    -4.313000000    -1.768000000
H    -3.941000000    -3.352000000    -0.917000000
O    -1.001000000    -1.678000000    -5.324000000
H    -1.125000000    -1.507000000    -6.257000000
H    -1.142000000    -2.621000000    -5.232000000
O    -0.222000000    -6.041000000     0.199000000
H    -0.524000000    -5.438000000    -0.480000000
H    -0.665000000    -5.746000000     0.995000000
O     6.375000000    -0.093000000    -1.857000000
H     6.927000000     0.668000000    -2.040000000
H     5.510000000     0.155000000    -2.182000000
O     3.723000000     3.633000000    -1.645000000
H     3.308000000     4.042000000    -2.405000000
H     3.713000000     2.696000000    -1.842000000
O    -0.892000000     2.085000000     2.804000000
H    -0.111000000     2.629000000     2.909000000
H    -1.361000000     2.479000000     2.069000000
O    -3.528000000     1.771000000    -2.934000000
H    -4.303000000     1.680000000    -3.488000000
H    -3.456000000     0.930000000    -2.483000000
O    -1.756000000    -6.544000000     2.568000000
H    -2.236000000    -5.716000000     2.577000000
H    -2.149000000    -7.056000000     3.276000000
O     3.075000000     4.714000000     1.473000000
H     3.467000000     5.536000000     1.765000000
H     3.293000000     4.661000000     0.542000000
O    -1.606000000     2.687000000    -5.487000000
H    -1.216000000     1.915000000    -5.078000000
H    -1.637000000     3.339000000    -4.786000000
O    -4.328000000     1.314000000     2.880000000
H    -3.693000000     0.611000000     3.019000000
H    -4.368000000     1.416000000     1.929000000
O     1.249000000    -2.563000000     3.836000000
H     1.623000000    -2.806000000     4.683000000
H     0.303000000    -2.562000000     3.983000000
O     7.476000000     1.591000000     1.934000000
H     7.416000000     0.929000000     1.246000000
H     8.404000000     1.612000000     2.166000000
O    -6.037000000    -5.245000000    -2.966000000
H    -6.058000000    -4.455000000    -3.506000000
H    -6.839000000    -5.199000000    -2.445000000
O     1.421000000     4.868000000    -3.576000000
H     0.805000000     5.524000000    -3.903000000
H     1.073000000     4.618000000    -2.721000000
O     0.038000000    -0.548000000     6.398000000
H     0.780000000    -0.285000000     6.942000000
H     0.227000000    -0.172000000     5.538000000
O    -2.371000000    -0.360000000     2.753000000
H    -1.725000000     0.344000000     2.692000000
H    -1.853000000    -1.164000000     2.711000000
O    -0.197000000     4.551000000    -1.355000000
H    -0.780000000     4.439000000    -2.106000000
H    -0.522000000     3.927000000    -0.705000000
O     0.521000000     0.204000000     3.984000000
H     0.774000000    -0.408000000     3.292000000
H     0.069000000     0.912000000     3.524000000
O     5.728000000    -2.227000000     3.686000000
H     5.097000000    -2.827000000     3.289000000
H     6.561000000    -2.696000000     3.647000000
O     3.815000000     0.792000000    -2.608000000
H     3.291000000     1.151000000    -3.324000000
H     3.414000000    -0.056000000    -2.419000000
O    -6.146000000    -4.548000000     1.057000000
H    -5.529000000    -4.671000000     0.335000000
H    -7.007000000    -4.544000000     0.639000000
O    -1.129000000    -4.321000000    -1.621000000
H    -1.671000000    -3.537000000    -1.536000000
H    -1.017000000    -4.433000000    -2.565000000
O     1.161000000     3.820000000     3.123000000
H     1.546000000     4.526000000     2.604000000
H     1.884000000     3.212000000     3.273000000
O     6.317000000     4.116000000    -1.238000000
H     6.626000000     3.231000000    -1.428000000
H     5.385000000     4.096000000    -1.455000000
O    -1.356000000    -2.876000000     3.308000000
H    -1.990000000    -3.227000000     3.933000000
H    -1.317000000    -3.533000000     2.612000000
O    -2.139000000     3.341000000     0.771000000
H    -2.976000000     2.897000000     0.635000000
H    -2.357000000     4.104000000     1.307000000
O     4.000000000    -4.120000000    -0.523000000
H     3.628000000    -4.994000000    -0.405000000
H     4.943000000    -4.269000000    -0.596000000
O    -2.228000000     4.288000000    -3.124000000
H    -2.744000000     3.644000000    -2.639000000
H    -2.790000000     5.061000000    -3.169000000
O    -0.961000000    -4.510000000    -4.466000000
H    -0.568000000    -5.342000000    -4.730000000
H    -1.534000000    -4.274000000    -5.196000000
O    -2.503000000    -6.865000000    -2.692000000
H    -1.557000000    -7.000000000    -2.623000000
H    -2.631000000    -5.945000000    -2.461000000
O     5.194000000     0.630000000     3.015000000
H     5.208000000    -0.161000000     2.476000000
H     6.082000000     0.981000000     2.947000000
O    -6.493000000    -3.025000000    -4.341000000
H    -5.562000000    -2.801000000    -4.346000000
H    -6.836000000    -2.638000000    -5.147000000
O     3.539000000    -1.100000000     5.010000000
H     2.872000000    -1.211000000     4.332000000
H     4.299000000    -1.577000000     4.677000000
O     5.130000000     1.641000000     6.186000000
H     6.087000000     1.655000000     6.180000000
H     4.888000000     1.431000000     5.283000000
O    -4.352000000     1.858000000     0.225000000
H    -5.301000000     1.741000000     0.180000000
H    -3.997000000     1.143000000    -0.303000000
O     3.413000000    -2.431000000    -2.466000000
H     2.771000000    -2.911000000    -2.989000000
H     3.462000000    -2.915000000    -1.642000000
O     3.980000000    -3.384000000     1.996000000
H     3.047000000    -3.401000000     2.210000000
H     4.010000000    -3.492000000     1.046000000
O     1.785000000     1.919000000    -4.369000000
H     1.389000000     2.759000000    -4.137000000
H     1.041000000     1.330000000    -4.492000000
