144
-2825.32935
O    -0.648000000     0.813000000    -5.980000000
H     0.269000000     1.007000000    -6.173000000
H    -0.751000000     1.037000000    -5.055000000
O    -3.388000000     1.516000000     4.792000000
H    -2.973000000     2.232000000     5.274000000
H    -4.099000000     1.225000000     5.363000000
O     1.722000000     0.706000000     6.422000000
H     1.797000000     0.307000000     5.556000000
H     2.181000000     1.543000000     6.342000000
O     2.125000000     5.430000000    -1.707000000
H     1.936000000     4.560000000    -2.059000000
H     1.851000000     6.033000000    -2.398000000
O    -4.893000000    -3.651000000    -4.317000000
H    -4.396000000    -4.349000000    -3.888000000
H    -4.902000000    -2.937000000    -3.679000000
O    -3.165000000     5.363000000    -2.439000000
H    -2.972000000     4.470000000    -2.723000000
H    -2.641000000     5.482000000    -1.647000000
O    -1.666000000    -0.907000000     5.886000000
H    -2.120000000    -1.103000000     6.706000000
H    -1.729000000     0.044000000     5.798000000
O    -2.022000000    -6.641000000    -1.654000000
H    -1.214000000    -6.132000000    -1.594000000
H    -1.740000000    -7.550000000    -1.554000000
O     1.225000000     3.200000000    -3.300000000
H     0.619000000     3.855000000    -3.645000000
H     0.663000000     2.473000000    -3.030000000
O    -3.047000000     2.868000000    -3.757000000
H    -3.431000000     2.514000000    -4.560000000
H    -2.266000000     2.335000000    -3.611000000
O    -1.434000000    -3.622000000    -3.071000000
H    -1.251000000    -2.715000000    -3.316000000
H    -1.559000000    -4.074000000    -3.906000000
O    -2.476000000    -1.282000000    -5.785000000
H    -1.870000000    -1.218000000    -5.047000000
H    -2.327000000    -0.482000000    -6.288000000
O    -4.077000000     1.583000000    -1.399000000
H    -3.186000000     1.356000000    -1.664000000
H    -4.416000000     2.110000000    -2.122000000
O    -4.452000000     1.757000000    -6.307000000
H    -5.282000000     2.200000000    -6.482000000
H    -4.696000000     0.975000000    -5.812000000
O    -5.286000000     3.470000000     0.227000000
H    -4.932000000     3.051000000    -0.558000000
H    -4.579000000     3.411000000     0.870000000
O    -1.789000000     3.210000000     6.289000000
H    -2.145000000     3.615000000     7.080000000
H    -1.930000000     3.863000000     5.603000000
O     3.385000000    -5.873000000     2.369000000
H     3.434000000    -6.807000000     2.163000000
H     2.889000000    -5.493000000     1.644000000
O     5.081000000     1.444000000     3.282000000
H     5.203000000     1.396000000     4.230000000
H     4.738000000     0.583000000     3.041000000
O     3.541000000     5.519000000     2.524000000
H     3.115000000     4.664000000     2.580000000
H     3.928000000     5.537000000     1.648000000
O     0.740000000     5.278000000     0.674000000
H     1.283000000     5.555000000    -0.064000000
H     1.046000000     4.394000000     0.878000000
O    -3.038000000    -1.044000000    -0.579000000
H    -3.597000000    -0.776000000     0.150000000
H    -2.148000000    -0.987000000    -0.232000000
O     2.968000000    -0.086000000    -0.560000000
H     3.355000000    -0.845000000    -0.997000000
H     2.045000000    -0.317000000    -0.454000000
O    -3.538000000    -1.164000000     3.587000000
H    -3.329000000    -0.279000000     3.886000000
H    -3.424000000    -1.713000000     4.363000000
O    -0.287000000    -2.900000000     4.967000000
H    -0.815000000    -2.183000000     5.318000000
H    -0.220000000    -3.524000000     5.691000000
O    -3.674000000     3.082000000     2.628000000
H    -3.801000000     2.329000000     3.205000000
H    -4.340000000     3.712000000     2.907000000
O    -0.189000000     5.208000000    -4.335000000
H    -0.526000000     5.424000000    -5.204000000
H    -0.601000000     5.845000000    -3.751000000
O     1.140000000    -5.204000000     0.787000000
H     0.683000000    -4.741000000     1.490000000
H     0.970000000    -4.680000000     0.005000000
O     4.205000000    -1.321000000     3.247000000
H     3.391000000    -1.811000000     3.370000000
H     4.760000000    -1.591000000     3.978000000
O     3.612000000    -5.026000000    -1.045000000
H     3.877000000    -5.266000000    -1.933000000
H     2.782000000    -4.563000000    -1.160000000
O     2.712000000    -2.550000000    -2.936000000
H     3.507000000    -2.198000000    -2.536000000
H     2.638000000    -2.085000000    -3.770000000
O     5.881000000    -0.687000000     0.442000000
H     6.016000000    -1.592000000     0.721000000
H     5.303000000    -0.314000000     1.107000000
O    -5.140000000    -0.592000000    -5.255000000
H    -5.507000000    -0.863000000    -4.413000000
H    -4.265000000    -0.980000000    -5.270000000
O     0.860000000    -2.405000000    -5.208000000
H     1.098000000    -1.767000000    -5.880000000
H     0.275000000    -1.927000000    -4.619000000
O    -3.660000000    -4.265000000     1.870000000
H    -3.252000000    -3.855000000     1.107000000
H    -4.435000000    -3.730000000     2.043000000
O     1.072000000    -4.381000000    -1.955000000
H     0.177000000    -4.322000000    -2.290000000
H     1.566000000    -3.753000000    -2.482000000
O    -0.599000000     1.218000000     7.757000000
H    -1.045000000     1.916000000     7.278000000
H     0.254000000     1.141000000     7.328000000
O    -0.691000000    -4.161000000     2.682000000
H    -0.335000000    -3.699000000     3.441000000
H    -1.570000000    -3.798000000     2.572000000
O    -1.982000000     5.533000000     0.272000000
H    -2.409000000     5.404000000     1.119000000
H    -1.046000000     5.510000000     0.470000000
O    -5.312000000    -1.257000000    -2.689000000
H    -6.090000000    -1.559000000    -2.221000000
H    -4.779000000    -0.831000000    -2.018000000
O     1.965000000     1.211000000    -6.452000000
H     2.042000000     1.569000000    -7.336000000
H     2.781000000     0.730000000    -6.316000000
O    -1.632000000     4.304000000     3.700000000
H    -2.491000000     4.053000000     3.362000000
H    -1.533000000     5.222000000     3.448000000
O     1.218000000     4.848000000     4.099000000
H     0.366000000     4.426000000     3.996000000
H     1.259000000     5.483000000     3.384000000
O    -2.593000000     0.960000000    -7.974000000
H    -1.769000000     0.977000000    -7.487000000
H    -3.218000000     1.409000000    -7.404000000
O    -2.395000000    -3.597000000    -0.454000000
H    -2.407000000    -3.982000000    -1.330000000
H    -2.752000000    -2.717000000    -0.574000000
O    -2.108000000    -4.345000000    -6.442000000
H    -1.576000000    -4.261000000    -7.233000000
H    -2.710000000    -3.601000000    -6.478000000
O     2.926000000     2.833000000     1.872000000
H     2.269000000     2.204000000     2.168000000
H     3.707000000     2.624000000     2.384000000
O     0.614000000    -5.117000000    -5.628000000
H     0.730000000    -4.211000000    -5.340000000
H    -0.239000000    -5.123000000    -6.062000000
O     2.522000000    -3.227000000     3.486000000
H     1.662000000    -3.080000000     3.880000000
H     2.584000000    -4.178000000     3.393000000
