144
-2812.44701
O    -0.819000000     0.220000000    -6.362000000
H    -0.027000000    -0.023000000    -6.842000000
H    -0.524000000     0.342000000    -5.460000000
O    -3.334000000     0.841000000     7.010000000
H    -2.690000000     1.028000000     7.693000000
H    -4.178000000     1.033000000     7.419000000
O     4.435000000     0.406000000     2.109000000
H     3.942000000    -0.346000000     1.780000000
H     5.246000000     0.401000000     1.602000000
O     4.851000000     2.745000000    -1.410000000
H     4.470000000     1.870000000    -1.489000000
H     5.445000000     2.816000000    -2.157000000
O    -1.393000000    -6.131000000    -4.367000000
H    -1.913000000    -6.348000000    -3.593000000
H    -0.870000000    -5.376000000    -4.100000000
O     0.421000000     3.682000000    -8.069000000
H    -0.295000000     3.855000000    -8.680000000
H     0.036000000     3.819000000    -7.204000000
O    -2.980000000     5.002000000    -2.243000000
H    -3.777000000     4.960000000    -1.713000000
H    -2.267000000     4.966000000    -1.605000000
O    -1.422000000    -2.446000000     4.708000000
H    -2.192000000    -1.879000000     4.668000000
H    -0.708000000    -1.862000000     4.963000000
O     1.920000000     1.925000000    -4.660000000
H     1.899000000     2.580000000    -3.962000000
H     1.280000000     1.266000000    -4.390000000
O    -1.979000000     2.807000000    -3.913000000
H    -1.902000000     3.067000000    -2.995000000
H    -1.563000000     1.946000000    -3.954000000
O    -0.449000000    -2.241000000     8.482000000
H    -0.738000000    -1.907000000     7.633000000
H    -1.256000000    -2.341000000     8.987000000
O    -0.165000000    -4.184000000    -2.580000000
H    -0.375000000    -3.297000000    -2.872000000
H     0.627000000    -4.414000000    -3.065000000
O    -2.061000000    -2.169000000    -5.349000000
H    -1.355000000    -1.973000000    -4.733000000
H    -1.945000000    -1.533000000    -6.055000000
O    -3.156000000     1.665000000    -0.932000000
H    -3.109000000     0.812000000    -0.502000000
H    -3.174000000     1.461000000    -1.867000000
O    -3.574000000    -0.184000000    -3.578000000
H    -4.266000000     0.313000000    -4.015000000
H    -3.317000000    -0.849000000    -4.216000000
O     1.170000000     5.259000000    -0.182000000
H     1.584000000     5.506000000    -1.008000000
H     1.890000000     4.936000000     0.360000000
O    -4.291000000     3.772000000     0.671000000
H    -3.524000000     3.442000000     1.139000000
H    -4.414000000     3.156000000    -0.051000000
O    -0.502000000     3.349000000     7.714000000
H    -1.338000000     3.629000000     8.088000000
H    -0.613000000     3.461000000     6.770000000
O     4.080000000     2.697000000     3.631000000
H     4.131000000     1.796000000     3.312000000
H     4.581000000     2.691000000     4.446000000
O     3.770000000     4.411000000     0.715000000
H     4.365000000     3.928000000     0.142000000
H     3.864000000     3.987000000     1.568000000
O    -2.005000000     3.022000000     1.982000000
H    -1.704000000     2.140000000     1.763000000
H    -2.490000000     2.914000000     2.800000000
O     2.671000000    -3.207000000     0.096000000
H     2.648000000    -2.963000000    -0.829000000
H     1.973000000    -2.689000000     0.498000000
O     4.629000000    -1.550000000    -4.908000000
H     4.220000000    -1.498000000    -4.044000000
H     3.934000000    -1.871000000    -5.483000000
O    -4.023000000    -0.774000000     4.891000000
H    -4.614000000    -1.375000000     5.344000000
H    -3.902000000    -0.049000000     5.504000000
O     0.641000000    -4.935000000     4.746000000
H     0.561000000    -4.031000000     5.048000000
H     0.617000000    -5.459000000     5.548000000
O    -2.993000000     2.559000000     4.563000000
H    -3.133000000     2.204000000     5.441000000
H    -3.655000000     3.243000000     4.472000000
O     4.405000000     1.288000000    -5.948000000
H     5.029000000     0.804000000    -5.407000000
H     3.686000000     1.501000000    -5.354000000
O    -1.505000000     4.389000000    -6.024000000
H    -2.346000000     4.546000000    -6.452000000
H    -1.706000000     3.770000000    -5.321000000
O     2.942000000    -2.507000000    -2.542000000
H     3.111000000    -3.331000000    -2.998000000
H     2.107000000    -2.203000000    -2.898000000
O     3.313000000    -5.901000000    -0.546000000
H     2.789000000    -5.143000000    -0.288000000
H     3.296000000    -6.476000000     0.219000000
O    -3.966000000    -2.501000000    -2.263000000
H    -3.453000000    -2.824000000    -1.522000000
H    -3.397000000    -1.860000000    -2.688000000
O     2.783000000    -2.697000000    -6.633000000
H     3.163000000    -3.405000000    -7.153000000
H     2.409000000    -2.098000000    -7.279000000
O    -4.291000000    -5.048000000     2.856000000
H    -3.362000000    -4.943000000     2.651000000
H    -4.743000000    -4.540000000     2.182000000
O     1.569000000     7.860000000     0.709000000
H     1.314000000     7.000000000     0.374000000
H     0.920000000     8.461000000     0.344000000
O     0.339000000    -0.853000000     5.965000000
H     0.248000000     0.085000000     6.133000000
H     1.183000000    -1.085000000     6.354000000
O    -1.665000000    -4.621000000     2.276000000
H    -1.036000000    -4.380000000     2.956000000
H    -1.129000000    -4.996000000     1.576000000
O    -1.394000000     4.847000000     0.009000000
H    -1.539000000     4.317000000     0.793000000
H    -0.445000000     4.965000000    -0.028000000
O    -3.037000000    -3.068000000     0.326000000
H    -2.267000000    -3.248000000     0.864000000
H    -3.581000000    -2.497000000     0.870000000
O     1.354000000    -0.850000000    -8.150000000
H     1.718000000    -0.087000000    -8.599000000
H     0.744000000    -1.231000000    -8.781000000
O    -0.892000000     4.429000000     4.995000000
H    -1.576000000     3.794000000     4.784000000
H    -1.369000000     5.209000000     5.279000000
O    -4.277000000    -1.168000000     2.181000000
H    -5.117000000    -0.820000000     1.881000000
H    -4.112000000    -0.715000000     3.008000000
O    -4.388000000    -3.736000000     5.187000000
H    -3.799000000    -3.302000000     4.570000000
H    -4.572000000    -4.585000000     4.786000000
O     1.276000000     4.388000000     3.206000000
H     0.451000000     4.302000000     3.684000000
H     1.869000000     3.774000000     3.638000000
O    -3.019000000     1.330000000    -7.248000000
H    -2.190000000     0.967000000    -6.937000000
H    -3.527000000     1.484000000    -6.452000000
O    -0.558000000    -5.635000000    -0.137000000
H    -0.418000000    -5.025000000    -0.861000000
H    -1.470000000    -5.911000000    -0.229000000
O    -2.876000000    -4.452000000    -6.383000000
H    -2.619000000    -3.706000000    -5.841000000
H    -2.139000000    -5.059000000    -6.319000000
O     1.481000000    -4.447000000    -4.875000000
H     1.935000000    -3.680000000    -5.225000000
H     2.044000000    -5.185000000    -5.107000000
O     3.412000000     4.637000000    -4.679000000
H     2.690000000     5.203000000    -4.952000000
H     3.471000000     4.764000000    -3.732000000
