144
-2799.12214
O    -1.575000000    -6.591000000    -2.290000000
H    -0.806000000    -7.112000000    -2.523000000
H    -1.347000000    -5.699000000    -2.553000000
O     3.508000000     3.165000000     1.607000000
H     4.379000000     2.788000000     1.480000000
H     2.908000000     2.435000000     1.456000000
O    -1.584000000    -3.740000000    -2.542000000
H    -0.963000000    -3.106000000    -2.903000000
H    -2.195000000    -3.211000000    -2.029000000
O     2.787000000    -4.759000000     2.486000000
H     2.551000000    -5.276000000     1.716000000
H     1.950000000    -4.450000000     2.832000000
O     0.117000000     4.739000000    -1.591000000
H     0.950000000     4.267000000    -1.582000000
H     0.074000000     5.165000000    -0.735000000
O    -3.045000000    -0.810000000     5.742000000
H    -3.456000000     0.013000000     5.478000000
H    -3.732000000    -1.467000000     5.632000000
O     3.061000000     4.464000000     6.403000000
H     3.726000000     4.153000000     7.018000000
H     3.118000000     3.859000000     5.663000000
O    -1.273000000    -5.702000000     0.424000000
H    -1.929000000    -5.037000000     0.214000000
H    -1.102000000    -6.141000000    -0.409000000
O     2.843000000     1.224000000    -3.884000000
H     3.194000000     0.593000000    -4.512000000
H     1.914000000     1.003000000    -3.816000000
O    -1.101000000     4.875000000    -4.006000000
H    -0.580000000     4.601000000    -3.251000000
H    -0.476000000     5.313000000    -4.583000000
O    -2.088000000    -1.219000000     8.124000000
H    -1.314000000    -1.069000000     7.581000000
H    -2.827000000    -1.091000000     7.528000000
O    -1.232000000    -2.222000000    -5.625000000
H    -0.375000000    -2.190000000    -5.199000000
H    -1.525000000    -1.311000000    -5.641000000
O    -3.552000000     2.251000000    -2.202000000
H    -3.013000000     2.738000000    -2.826000000
H    -3.560000000     1.356000000    -2.540000000
O    -2.724000000     0.144000000    -5.632000000
H    -2.550000000     0.353000000    -4.714000000
H    -2.771000000     0.995000000    -6.067000000
O    -2.915000000    -1.931000000    -1.057000000
H    -2.186000000    -1.468000000    -0.645000000
H    -3.697000000    -1.556000000    -0.651000000
O     0.489000000     5.431000000     5.345000000
H     1.198000000     5.369000000     5.984000000
H    -0.095000000     4.704000000     5.564000000
O     3.165000000     2.688000000     4.587000000
H     3.337000000     3.108000000     3.744000000
H     3.808000000     1.981000000     4.638000000
O    -3.887000000    -0.384000000    -2.983000000
H    -4.718000000    -0.834000000    -2.827000000
H    -3.237000000    -0.917000000    -2.526000000
O     2.791000000     0.620000000    -0.238000000
H     3.315000000    -0.166000000    -0.395000000
H     1.885000000     0.318000000    -0.293000000
O    -2.706000000     2.875000000    -4.752000000
H    -3.087000000     3.180000000    -5.575000000
H    -2.043000000     3.531000000    -4.536000000
O     3.624000000    -0.588000000    -5.601000000
H     3.940000000    -0.425000000    -6.490000000
H     3.011000000    -1.317000000    -5.695000000
O    -5.920000000     3.783000000    -0.108000000
H    -5.040000000     3.680000000     0.253000000
H    -6.239000000     4.602000000     0.271000000
O    -1.326000000    -3.613000000     6.262000000
H    -1.028000000    -2.706000000     6.336000000
H    -2.230000000    -3.594000000     6.577000000
O     5.396000000     1.895000000    -2.969000000
H     4.561000000     1.734000000    -3.409000000
H     5.501000000     1.150000000    -2.376000000
O     2.685000000     2.999000000    -1.918000000
H     2.759000000     2.383000000    -1.189000000
H     2.705000000     2.448000000    -2.700000000
O     1.648000000    -6.714000000     0.299000000
H     1.501000000    -7.653000000     0.411000000
H     1.518000000    -6.560000000    -0.637000000
O     3.717000000    -1.234000000    -2.281000000
H     4.043000000    -2.120000000    -2.442000000
H     3.193000000    -1.027000000    -3.055000000
O    -3.364000000    -4.168000000    -5.224000000
H    -2.988000000    -5.049000000    -5.223000000
H    -2.609000000    -3.586000000    -5.139000000
O     4.321000000    -3.833000000    -2.768000000
H     4.573000000    -4.416000000    -3.485000000
H     4.713000000    -4.228000000    -1.989000000
O    -2.715000000    -3.261000000     3.012000000
H    -3.124000000    -2.453000000     2.704000000
H    -2.707000000    -3.177000000     3.966000000
O     2.712000000     1.566000000    -7.847000000
H     2.123000000     1.365000000    -8.575000000
H     2.135000000     1.645000000    -7.088000000
O    -0.272000000    -1.088000000     6.156000000
H    -0.706000000    -0.848000000     5.338000000
H     0.199000000    -0.296000000     6.418000000
O    -0.073000000    -4.411000000     2.564000000
H    -0.119000000    -4.775000000     1.680000000
H    -0.928000000    -4.002000000     2.699000000
O    -0.310000000    -3.785000000    -7.501000000
H    -0.059000000    -4.421000000    -6.831000000
H    -0.595000000    -3.017000000    -7.007000000
O     0.225000000     5.679000000     0.891000000
H    -0.599000000     5.375000000     1.272000000
H     0.790000000     5.847000000     1.644000000
O     1.884000000    -2.834000000    -5.251000000
H     2.224000000    -3.671000000    -4.937000000
H     1.539000000    -2.406000000    -4.468000000
O    -1.106000000     1.834000000     6.901000000
H    -1.432000000     2.716000000     7.079000000
H    -1.894000000     1.294000000     6.845000000
O    -2.170000000     4.554000000     2.292000000
H    -2.391000000     4.078000000     1.492000000
H    -2.643000000     4.092000000     2.984000000
O    -3.632000000     0.055000000     0.930000000
H    -3.717000000     0.198000000     1.873000000
H    -4.499000000     0.254000000     0.579000000
O    -3.245000000     2.985000000     0.395000000
H    -3.398000000     2.938000000    -0.549000000
H    -3.011000000     2.091000000     0.644000000
O     1.341000000     1.225000000     6.114000000
H     0.488000000     1.641000000     6.238000000
H     1.778000000     1.768000000     5.457000000
O     0.476000000     1.328000000    -6.243000000
H     0.384000000     0.865000000    -5.410000000
H    -0.326000000     1.120000000    -6.722000000
O     0.695000000     4.472000000    -6.813000000
H     0.558000000     3.526000000    -6.865000000
H     1.036000000     4.712000000    -7.675000000
O    -4.032000000    -4.632000000    -0.523000000
H    -4.047000000    -5.524000000    -0.870000000
H    -3.544000000    -4.129000000    -1.174000000
O     0.600000000    -5.821000000    -5.951000000
H     1.373000000    -6.027000000    -6.477000000
H     0.953000000    -5.471000000    -5.134000000
O     1.544000000    -5.423000000    -3.197000000
H     2.082000000    -6.197000000    -3.365000000
H     2.168000000    -4.756000000    -2.909000000
O    -3.656000000     3.154000000     4.171000000
H    -3.780000000     3.906000000     4.750000000
H    -4.429000000     2.608000000     4.317000000
O     0.597000000    -5.228000000     5.111000000
H     0.011000000    -4.702000000     5.656000000
H     0.429000000    -4.927000000     4.218000000
