144
-2817.79365
O     1.509000000    -2.327000000     4.826000000
H     2.145000000    -1.612000000     4.804000000
H     2.036000000    -3.119000000     4.725000000
O    -4.346000000    -2.307000000     3.720000000
H    -4.071000000    -2.960000000     3.076000000
H    -3.611000000    -2.248000000     4.330000000
O     1.654000000    -4.821000000     1.838000000
H     2.279000000    -4.107000000     1.713000000
H     1.397000000    -5.072000000     0.950000000
O     2.872000000     0.902000000    -0.024000000
H     3.261000000     0.257000000     0.567000000
H     1.948000000     0.929000000     0.225000000
O    -2.836000000     6.434000000    -0.771000000
H    -3.226000000     6.215000000    -1.617000000
H    -2.781000000     5.598000000    -0.309000000
O    -1.392000000    -3.147000000     1.730000000
H    -1.309000000    -3.804000000     1.039000000
H    -1.703000000    -2.362000000     1.279000000
O     5.170000000     2.647000000     2.893000000
H     5.948000000     2.313000000     2.447000000
H     5.422000000     2.691000000     3.815000000
O     1.873000000    -0.766000000    -5.171000000
H     1.695000000     0.137000000    -5.437000000
H     1.296000000    -0.913000000    -4.422000000
O    -1.738000000     2.403000000    -4.698000000
H    -1.793000000     1.517000000    -4.340000000
H    -2.606000000     2.566000000    -5.066000000
O    -0.158000000    -5.393000000    -5.410000000
H    -0.590000000    -4.540000000    -5.439000000
H     0.494000000    -5.308000000    -4.714000000
O     2.505000000    -4.275000000    -6.596000000
H     2.815000000    -5.134000000    -6.310000000
H     2.423000000    -3.768000000    -5.788000000
O    -1.404000000    -3.840000000    -3.180000000
H    -0.711000000    -3.193000000    -3.309000000
H    -1.031000000    -4.471000000    -2.565000000
O     1.205000000     2.811000000     4.881000000
H     1.054000000     2.731000000     5.823000000
H     0.419000000     3.244000000     4.548000000
O    -5.227000000    -0.926000000    -4.432000000
H    -5.065000000    -0.569000000    -5.305000000
H    -4.633000000    -1.674000000    -4.366000000
O    -3.906000000     0.274000000    -6.454000000
H    -2.952000000     0.311000000    -6.391000000
H    -4.075000000    -0.042000000    -7.342000000
O     0.034000000     4.765000000     1.143000000
H     0.672000000     5.429000000     1.405000000
H    -0.218000000     4.338000000     1.962000000
O    -3.251000000    -1.298000000     0.214000000
H    -3.400000000    -0.619000000     0.872000000
H    -3.373000000    -0.851000000    -0.623000000
O     3.991000000    -5.428000000    -2.004000000
H     4.456000000    -4.617000000    -1.796000000
H     4.683000000    -6.053000000    -2.220000000
O     3.796000000     0.053000000     4.558000000
H     3.714000000    -0.271000000     5.455000000
H     3.292000000     0.867000000     4.549000000
O     2.762000000     5.576000000     1.273000000
H     2.690000000     4.984000000     2.022000000
H     3.222000000     5.066000000     0.607000000
O     3.101000000     4.171000000     3.641000000
H     2.338000000     3.761000000     4.047000000
H     3.504000000     3.472000000     3.127000000
O     3.688000000    -3.307000000     1.143000000
H     4.039000000    -2.428000000     1.288000000
H     4.453000000    -3.881000000     1.192000000
O     4.966000000    -2.908000000    -1.597000000
H     5.564000000    -3.037000000    -0.861000000
H     4.684000000    -1.996000000    -1.520000000
O    -1.273000000    -0.284000000    -6.085000000
H    -1.315000000    -0.477000000    -5.148000000
H    -0.504000000     0.278000000    -6.179000000
O    -0.542000000     1.708000000     7.241000000
H    -1.096000000     2.408000000     7.585000000
H     0.239000000     1.726000000     7.794000000
O    -0.416000000    -4.860000000     3.799000000
H    -0.988000000    -4.300000000     3.273000000
H     0.457000000    -4.723000000     3.431000000
O     4.592000000    -0.524000000    -4.346000000
H     3.856000000    -0.173000000    -3.845000000
H     4.320000000    -1.412000000    -4.580000000
O     3.019000000     1.141000000    -2.612000000
H     2.890000000     0.832000000    -1.715000000
H     2.332000000     1.794000000    -2.742000000
O    -1.396000000     4.514000000    -2.914000000
H    -1.302000000     3.811000000    -3.556000000
H    -2.036000000     5.110000000    -3.304000000
O    -1.425000000    -4.997000000    -0.344000000
H    -0.573000000    -5.389000000    -0.150000000
H    -2.001000000    -5.744000000    -0.508000000
O     2.375000000    -3.658000000    -3.693000000
H     2.672000000    -3.704000000    -2.785000000
H     1.711000000    -2.968000000    -3.694000000
O    -3.748000000    -3.090000000    -4.572000000
H    -4.084000000    -3.756000000    -5.171000000
H    -3.099000000    -3.551000000    -4.041000000
O    -3.653000000    -0.250000000    -2.186000000
H    -2.800000000    -0.483000000    -2.554000000
H    -4.256000000    -0.306000000    -2.927000000
O     3.886000000     3.343000000    -0.256000000
H     4.842000000     3.296000000    -0.259000000
H     3.605000000     2.487000000     0.066000000
O    -1.436000000    -2.305000000     5.409000000
H    -1.301000000    -1.520000000     5.941000000
H    -0.556000000    -2.562000000     5.135000000
O    -3.197000000     0.595000000     2.024000000
H    -2.286000000     0.741000000     1.768000000
H    -3.257000000     0.954000000     2.910000000
O    -0.821000000     4.186000000     3.658000000
H    -1.549000000     3.583000000     3.812000000
H    -1.053000000     4.972000000     4.151000000
O     3.290000000    -6.166000000    -4.679000000
H     3.162000000    -6.971000000    -4.177000000
H     3.024000000    -5.466000000    -4.082000000
O     1.537000000    -5.844000000    -0.755000000
H     2.410000000    -5.678000000    -1.111000000
H     1.067000000    -6.281000000    -1.465000000
O    -3.317000000     4.047000000     0.867000000
H    -3.290000000     3.344000000     0.219000000
H    -2.662000000     3.798000000     1.519000000
O    -3.374000000     2.727000000     3.890000000
H    -3.428000000     3.095000000     4.772000000
H    -4.266000000     2.793000000     3.547000000
O    -4.246000000     2.259000000    -1.178000000
H    -4.251000000     1.306000000    -1.086000000
H    -4.542000000     2.415000000    -2.075000000
O    -1.259000000    -3.321000000    -6.421000000
H    -0.951000000    -2.419000000    -6.512000000
H    -1.945000000    -3.274000000    -5.755000000
O     1.828000000    -0.868000000    -8.018000000
H     2.028000000    -1.770000000    -8.267000000
H     2.139000000    -0.793000000    -7.116000000
O     4.412000000    -0.568000000     1.863000000
H     5.286000000    -0.198000000     1.736000000
H     4.306000000    -0.611000000     2.813000000
O     0.823000000     1.793000000    -5.544000000
H     0.076000000     2.274000000    -5.187000000
H     1.114000000     2.321000000    -6.288000000
O    -5.903000000    -0.802000000     2.039000000
H    -6.273000000    -1.680000000     1.954000000
H    -4.990000000    -0.950000000     2.285000000
O     0.852000000     4.698000000    -1.434000000
H    -0.022000000     4.629000000    -1.820000000
H     0.732000000     4.434000000    -0.522000000
