144
-2805.22240
O    -1.337000000    -5.813000000     1.472000000
H    -1.647000000    -5.187000000     2.127000000
H    -0.569000000    -5.394000000     1.085000000
O    -0.209000000    -3.223000000     4.769000000
H    -0.525000000    -3.486000000     3.905000000
H    -0.961000000    -2.798000000     5.181000000
O     1.249000000    -4.409000000     2.606000000
H     1.062000000    -5.336000000     2.459000000
H     1.388000000    -4.050000000     1.730000000
O     0.192000000     0.482000000    -5.107000000
H     0.827000000     1.040000000    -4.658000000
H     0.432000000    -0.409000000    -4.851000000
O    -2.491000000     5.080000000    -1.722000000
H    -2.925000000     4.353000000    -1.277000000
H    -1.862000000     5.413000000    -1.081000000
O    -6.362000000     2.082000000     0.742000000
H    -6.479000000     1.221000000     0.342000000
H    -7.215000000     2.288000000     1.123000000
O    -6.530000000     4.414000000    -1.785000000
H    -6.198000000     3.669000000    -1.283000000
H    -6.005000000     4.416000000    -2.586000000
O    -1.599000000     0.894000000     5.289000000
H    -1.467000000     0.650000000     6.205000000
H    -2.356000000     0.380000000     5.010000000
O    -1.540000000     6.617000000     0.900000000
H    -0.696000000     6.204000000     0.716000000
H    -1.530000000     6.773000000     1.844000000
O     2.238000000     1.577000000    -3.477000000
H     2.315000000     2.075000000    -2.663000000
H     3.134000000     1.520000000    -3.809000000
O    -4.223000000     4.640000000     1.105000000
H    -4.294000000     4.040000000     0.363000000
H    -3.767000000     5.404000000     0.753000000
O    -4.322000000     0.085000000    -1.988000000
H    -3.784000000     0.302000000    -2.750000000
H    -3.812000000    -0.573000000    -1.515000000
O     5.506000000    -1.078000000     0.334000000
H     5.004000000    -0.748000000    -0.412000000
H     5.787000000    -1.953000000     0.066000000
O    -4.362000000     1.262000000     2.953000000
H    -3.962000000     0.460000000     2.617000000
H    -5.145000000     1.382000000     2.416000000
O     0.558000000    -5.685000000    -0.491000000
H     0.992000000    -4.851000000    -0.313000000
H     0.690000000    -5.828000000    -1.429000000
O    -2.457000000    -1.450000000    -0.487000000
H    -1.695000000    -0.878000000    -0.577000000
H    -2.265000000    -2.196000000    -1.056000000
O     3.851000000    -2.917000000    -3.337000000
H     3.030000000    -2.980000000    -2.848000000
H     3.704000000    -3.444000000    -4.122000000
O     1.085000000    -7.765000000     1.614000000
H     0.129000000    -7.715000000     1.585000000
H     1.344000000    -7.915000000     0.705000000
O     0.915000000     5.519000000     0.189000000
H     1.504000000     6.254000000     0.361000000
H     0.946000000     4.995000000     0.989000000
O     3.706000000    -0.281000000    -1.699000000
H     2.969000000     0.054000000    -2.208000000
H     3.857000000    -1.160000000    -2.046000000
O     2.146000000    -1.553000000     4.644000000
H     2.571000000    -1.595000000     3.788000000
H     1.470000000    -2.230000000     4.609000000
O    -1.287000000     3.431000000    -6.183000000
H    -0.446000000     3.217000000    -6.585000000
H    -1.057000000     3.837000000    -5.347000000
O     4.512000000    -7.433000000     0.262000000
H     3.723000000    -7.072000000    -0.143000000
H     5.190000000    -7.339000000    -0.407000000
O    -3.989000000     3.782000000     3.685000000
H    -4.388000000     4.270000000     2.964000000
H    -4.104000000     2.862000000     3.444000000
O     6.468000000    -1.402000000    -2.589000000
H     6.886000000    -0.669000000    -3.040000000
H     5.641000000    -1.530000000    -3.053000000
O     2.477000000    -4.685000000    -5.194000000
H     3.290000000    -5.178000000    -5.303000000
H     2.251000000    -4.399000000    -6.079000000
O     3.013000000     3.077000000     4.374000000
H     2.474000000     2.316000000     4.588000000
H     2.607000000     3.446000000     3.590000000
O     3.880000000     1.847000000     0.268000000
H     3.569000000     1.080000000    -0.214000000
H     4.416000000     1.485000000     0.973000000
O     6.804000000    -5.008000000    -1.916000000
H     6.062000000    -4.762000000    -1.364000000
H     6.788000000    -5.965000000    -1.926000000
O     4.383000000    -4.303000000    -0.887000000
H     4.307000000    -4.190000000    -1.834000000
H     3.510000000    -4.100000000    -0.551000000
O     1.088000000     4.822000000     3.001000000
H     0.576000000     4.119000000     3.400000000
H     0.644000000     5.626000000     3.271000000
O     0.819000000    -2.133000000    -4.409000000
H     1.285000000    -2.421000000    -3.624000000
H     1.270000000    -2.572000000    -5.130000000
O     6.663000000    -3.916000000     1.302000000
H     5.736000000    -3.771000000     1.493000000
H     6.905000000    -4.664000000     1.847000000
O     3.413000000    -1.801000000     2.107000000
H     3.006000000    -2.384000000     1.465000000
H     4.069000000    -1.316000000     1.607000000
O     2.293000000     4.735000000    -3.796000000
H     1.412000000     4.624000000    -4.152000000
H     2.264000000     4.299000000    -2.944000000
O    -1.711000000    -3.183000000    -2.371000000
H    -0.794000000    -3.345000000    -2.592000000
H    -2.161000000    -3.158000000    -3.215000000
O    -2.972000000     0.232000000    -4.471000000
H    -3.445000000     0.343000000    -5.296000000
H    -2.048000000     0.290000000    -4.715000000
O    -3.480000000    -0.986000000     4.652000000
H    -3.053000000    -1.736000000     5.066000000
H    -3.755000000    -1.309000000     3.795000000
O    -3.968000000    -1.636000000     1.989000000
H    -3.637000000    -2.487000000     2.277000000
H    -3.547000000    -1.490000000     1.142000000
O    -2.697000000    -3.965000000     2.785000000
H    -3.428000000    -4.396000000     2.340000000
H    -2.801000000    -4.207000000     3.705000000
O     1.384000000    -6.438000000    -3.067000000
H     0.819000000    -6.288000000    -3.825000000
H     2.267000000    -6.251000000    -3.386000000
O    -0.927000000    -2.686000000    -6.249000000
H    -1.692000000    -3.068000000    -5.818000000
H    -0.489000000    -2.185000000    -5.561000000
O     3.716000000    -4.807000000     4.133000000
H     2.929000000    -4.464000000     3.710000000
H     3.892000000    -5.631000000     3.679000000
O     2.262000000     3.397000000    -1.396000000
H     1.621000000     4.033000000    -1.078000000
H     2.786000000     3.180000000    -0.625000000
O    -0.762000000     5.309000000    -3.995000000
H    -1.178000000     5.025000000    -3.181000000
H    -1.004000000     6.231000000    -4.079000000
O     1.314000000     1.116000000     4.482000000
H     0.387000000     0.969000000     4.668000000
H     1.709000000     0.245000000     4.533000000
O    -4.308000000     2.932000000    -0.922000000
H    -4.080000000     2.254000000    -1.559000000
H    -5.034000000     2.557000000    -0.423000000
O    -0.886000000     3.653000000     4.747000000
H    -1.756000000     3.977000000     4.515000000
H    -1.020000000     2.727000000     4.948000000
