144
-2805.52471
O    -3.527000000     2.479000000    -1.295000000
H    -3.023000000     3.288000000    -1.384000000
H    -3.087000000     1.999000000    -0.593000000
O    -2.310000000    -8.031000000    -0.805000000
H    -1.891000000    -7.172000000    -0.850000000
H    -1.962000000    -8.507000000    -1.559000000
O    -1.333000000    -2.927000000    -4.243000000
H    -0.799000000    -3.701000000    -4.422000000
H    -2.190000000    -3.278000000    -4.002000000
O     2.411000000     2.981000000     4.356000000
H     2.964000000     2.946000000     3.576000000
H     3.025000000     2.917000000     5.088000000
O    -2.699000000     0.897000000     0.753000000
H    -1.852000000     0.502000000     0.548000000
H    -2.710000000     0.960000000     1.708000000
O    -4.895000000    -2.178000000     0.900000000
H    -5.011000000    -2.481000000    -0.001000000
H    -4.112000000    -2.634000000     1.207000000
O     0.975000000     5.388000000     3.216000000
H     0.730000000     5.823000000     4.033000000
H     0.998000000     4.457000000     3.438000000
O    -4.148000000    -4.407000000    -1.478000000
H    -4.243000000    -5.115000000    -0.841000000
H    -3.494000000    -3.824000000    -1.092000000
O    -2.484000000     3.821000000    -3.908000000
H    -1.642000000     4.019000000    -4.317000000
H    -2.670000000     4.583000000    -3.360000000
O     5.606000000     5.659000000     1.617000000
H     5.169000000     4.966000000     1.123000000
H     6.507000000     5.351000000     1.717000000
O     4.354000000     5.673000000    -2.854000000
H     5.184000000     5.868000000    -3.290000000
H     4.038000000     4.879000000    -3.285000000
O    -4.736000000    -5.095000000     3.758000000
H    -4.482000000    -4.201000000     3.532000000
H    -4.702000000    -5.120000000     4.714000000
O    -1.258000000    -5.664000000    -1.915000000
H    -0.324000000    -5.534000000    -1.748000000
H    -1.685000000    -4.938000000    -1.460000000
O     4.767000000     3.645000000     0.048000000
H     4.363000000     3.203000000    -0.699000000
H     5.700000000     3.448000000    -0.032000000
O    -1.570000000    -5.820000000     3.204000000
H    -1.344000000    -5.179000000     2.530000000
H    -2.305000000    -5.426000000     3.673000000
O     1.297000000    -3.871000000     6.817000000
H     1.990000000    -3.657000000     7.441000000
H     1.227000000    -3.096000000     6.261000000
O    -2.650000000    -6.382000000    -4.258000000
H    -2.467000000    -6.232000000    -3.331000000
H    -1.956000000    -5.910000000    -4.719000000
O     4.362000000     2.236000000     2.677000000
H     5.280000000     2.209000000     2.947000000
H     4.379000000     2.649000000     1.813000000
O     3.544000000    -4.155000000     0.229000000
H     3.069000000    -3.326000000     0.294000000
H     3.668000000    -4.432000000     1.136000000
O     0.654000000     1.823000000    -4.503000000
H     0.081000000     1.226000000    -4.983000000
H     0.235000000     2.679000000    -4.590000000
O    -1.207000000    -1.705000000     5.201000000
H    -1.417000000    -2.070000000     4.341000000
H    -0.378000000    -1.244000000     5.069000000
O     1.790000000    -1.650000000    -5.174000000
H     1.490000000    -2.192000000    -4.444000000
H     1.003000000    -1.199000000    -5.479000000
O     0.272000000     1.634000000     5.058000000
H     1.063000000     2.152000000     4.910000000
H     0.566000000     0.894000000     5.588000000
O     3.984000000     5.558000000     4.090000000
H     3.172000000     5.079000000     3.919000000
H     4.362000000     5.705000000     3.223000000
O    -4.270000000    -1.208000000    -5.074000000
H    -3.406000000    -1.596000000    -5.212000000
H    -4.116000000    -0.493000000    -4.456000000
O     0.489000000     7.183000000     0.931000000
H     0.636000000     6.357000000     1.391000000
H     0.804000000     7.854000000     1.537000000
O     3.204000000     2.657000000    -4.165000000
H     2.949000000     3.311000000    -4.815000000
H     2.493000000     2.015000000    -4.179000000
O    -3.728000000     1.205000000    -3.878000000
H    -3.209000000     1.992000000    -4.044000000
H    -3.832000000     1.183000000    -2.927000000
O    -4.417000000    -0.159000000     4.432000000
H    -3.995000000     0.620000000     4.067000000
H    -5.349000000    -0.031000000     4.255000000
O    -3.156000000    -2.800000000     3.430000000
H    -3.551000000    -1.942000000     3.278000000
H    -2.461000000    -2.864000000     2.775000000
O     1.541000000    -1.656000000     4.785000000
H     2.289000000    -1.718000000     5.378000000
H     1.852000000    -1.109000000     4.063000000
O    -3.878000000    -0.912000000    -1.253000000
H    -3.538000000    -0.162000000    -0.764000000
H    -3.141000000    -1.521000000    -1.299000000
O    -0.553000000    -0.399000000    -5.688000000
H    -0.946000000    -1.220000000    -5.392000000
H    -1.208000000    -0.018000000    -6.273000000
O    -5.240000000    -5.660000000     1.022000000
H    -5.193000000    -5.418000000     1.947000000
H    -6.118000000    -5.392000000     0.749000000
O    -4.548000000     3.410000000     1.751000000
H    -5.228000000     3.992000000     1.413000000
H    -3.731000000     3.887000000     1.604000000
O     2.754000000    -1.460000000    -0.194000000
H     3.550000000    -0.978000000     0.029000000
H     2.068000000    -0.793000000    -0.211000000
O    -0.120000000     4.524000000    -4.849000000
H     0.507000000     5.060000000    -4.364000000
H     0.217000000     4.512000000    -5.745000000
O     0.312000000     8.408000000    -1.528000000
H     0.291000000     7.984000000    -0.670000000
H     0.778000000     7.790000000    -2.090000000
O    -3.920000000    -3.848000000    -4.135000000
H    -4.499000000    -3.085000000    -4.141000000
H    -3.890000000    -4.118000000    -3.218000000
O     1.325000000     6.064000000    -3.137000000
H     0.662000000     5.831000000    -2.488000000
H     2.142000000     5.714000000    -2.782000000
O     4.980000000     1.991000000    -2.175000000
H     5.413000000     1.168000000    -2.399000000
H     4.337000000     2.121000000    -2.873000000
O     4.922000000    -0.012000000     0.234000000
H     5.281000000    -0.335000000     1.060000000
H     5.411000000     0.793000000     0.059000000
O     1.885000000    -3.591000000    -2.762000000
H     1.575000000    -3.085000000    -2.011000000
H     2.587000000    -4.138000000    -2.410000000
O    -2.040000000     1.291000000     3.531000000
H    -1.942000000     2.243000000     3.516000000
H    -1.382000000     0.993000000     4.159000000
O     3.041000000    -0.201000000     3.038000000
H     3.980000000    -0.387000000     3.043000000
H     2.987000000     0.753000000     2.989000000
O    -2.295000000     5.798000000     2.035000000
H    -1.403000000     6.143000000     1.999000000
H    -2.273000000     5.150000000     2.738000000
O    -2.008000000     4.597000000    -0.690000000
H    -1.893000000     4.906000000     0.208000000
H    -2.210000000     5.387000000    -1.192000000
O     1.343000000    -3.760000000     2.657000000
H     0.889000000    -3.506000000     3.461000000
H     0.649000000    -3.829000000     2.002000000
