144
-2826.85957
O    -3.998000000     2.505000000    -0.597000000
H    -4.428000000     3.285000000    -0.246000000
H    -3.071000000     2.741000000    -0.639000000
O    -0.442000000     6.920000000    -0.813000000
H    -0.797000000     7.340000000    -1.596000000
H    -0.434000000     5.986000000    -1.026000000
O     0.239000000    -2.795000000     5.978000000
H     0.602000000    -3.046000000     5.129000000
H     0.736000000    -3.311000000     6.613000000
O    -2.089000000    -3.442000000    -3.416000000
H    -1.244000000    -3.752000000    -3.090000000
H    -2.508000000    -3.041000000    -2.655000000
O     3.450000000     0.034000000     4.536000000
H     4.315000000    -0.279000000     4.271000000
H     2.851000000    -0.346000000     3.893000000
O    -1.340000000     2.949000000     0.687000000
H    -0.538000000     2.969000000     1.210000000
H    -1.803000000     2.168000000     0.990000000
O    -6.404000000    -0.937000000     0.333000000
H    -6.095000000    -1.767000000    -0.028000000
H    -6.332000000    -0.318000000    -0.394000000
O    -3.517000000     3.524000000     2.795000000
H    -4.419000000     3.205000000     2.796000000
H    -2.987000000     2.747000000     2.975000000
O     1.877000000     1.970000000     5.380000000
H     2.230000000     2.811000000     5.669000000
H     2.642000000     1.398000000     5.317000000
O    -3.257000000    -4.867000000     5.016000000
H    -2.733000000    -4.558000000     4.277000000
H    -2.726000000    -4.668000000     5.787000000
O    -5.419000000    -3.157000000    -1.163000000
H    -4.503000000    -2.902000000    -1.272000000
H    -5.718000000    -3.362000000    -2.049000000
O    -3.103000000     3.113000000    -3.792000000
H    -2.210000000     2.775000000    -3.862000000
H    -3.330000000     3.002000000    -2.869000000
O     4.957000000     3.925000000     0.487000000
H     5.121000000     2.991000000     0.622000000
H     5.020000000     4.307000000     1.362000000
O     3.528000000     6.022000000    -0.510000000
H     2.800000000     5.924000000     0.103000000
H     4.154000000     5.346000000    -0.250000000
O     3.850000000     3.520000000    -2.898000000
H     3.979000000     3.890000000    -2.025000000
H     3.871000000     2.573000000    -2.762000000
O    -4.880000000    -6.350000000     2.556000000
H    -4.303000000    -6.745000000     3.209000000
H    -5.003000000    -5.450000000     2.858000000
O    -3.259000000    -6.914000000    -2.588000000
H    -2.627000000    -7.541000000    -2.236000000
H    -3.235000000    -6.180000000    -1.973000000
O     6.105000000     1.376000000     0.662000000
H     5.627000000     1.531000000    -0.153000000
H     6.950000000     1.024000000     0.380000000
O    -2.510000000    -5.469000000    -0.501000000
H    -2.781000000    -4.570000000    -0.312000000
H    -1.793000000    -5.636000000     0.111000000
O     5.067000000     2.972000000     4.690000000
H     5.077000000     2.058000000     4.407000000
H     5.815000000     3.048000000     5.283000000
O     1.020000000    -4.958000000    -2.296000000
H     1.356000000    -4.068000000    -2.181000000
H     1.087000000    -5.353000000    -1.427000000
O     0.173000000     0.081000000    -4.832000000
H    -0.469000000    -0.560000000    -5.135000000
H     0.502000000     0.488000000    -5.633000000
O    -2.232000000    -1.561000000     4.125000000
H    -2.876000000    -1.387000000     3.439000000
H    -1.942000000    -2.458000000     3.960000000
O    -1.634000000    -3.993000000     2.880000000
H    -1.967000000    -3.740000000     2.019000000
H    -0.682000000    -3.982000000     2.782000000
O     0.896000000    -3.802000000    -5.094000000
H     1.170000000    -3.714000000    -4.181000000
H     0.431000000    -2.987000000    -5.284000000
O    -0.692000000     1.220000000     6.009000000
H     0.178000000     1.593000000     5.864000000
H    -0.523000000     0.330000000     6.317000000
O     2.290000000     5.545000000     2.282000000
H     1.630000000     6.204000000     2.496000000
H     1.948000000     4.733000000     2.656000000
O     0.642000000     3.800000000     3.504000000
H     0.935000000     3.067000000     4.046000000
H    -0.221000000     4.024000000     3.851000000
O     3.006000000    -0.263000000    -3.314000000
H     3.212000000    -0.493000000    -4.220000000
H     2.067000000    -0.433000000    -3.232000000
O    -6.157000000    -1.018000000    -4.231000000
H    -5.671000000    -0.524000000    -3.571000000
H    -5.744000000    -1.881000000    -4.237000000
O    -6.292000000    -3.115000000     3.345000000
H    -5.845000000    -2.485000000     2.781000000
H    -6.720000000    -2.578000000     4.012000000
O    -4.141000000    -1.469000000     2.191000000
H    -4.701000000    -0.939000000     1.623000000
H    -3.681000000    -2.057000000     1.593000000
O     0.909000000    -3.945000000     2.989000000
H     1.320000000    -4.696000000     3.418000000
H     1.641000000    -3.382000000     2.739000000
O    -5.033000000     0.213000000    -1.797000000
H    -4.602000000     1.024000000    -1.527000000
H    -4.315000000    -0.401000000    -1.950000000
O    -1.474000000    -2.026000000    -6.019000000
H    -2.035000000    -2.507000000    -5.411000000
H    -2.074000000    -1.689000000    -6.684000000
O     5.508000000    -0.845000000     3.032000000
H     4.938000000    -0.245000000     2.551000000
H     5.426000000    -1.678000000     2.567000000
O    -6.681000000    -4.641000000     0.620000000
H    -5.957000000    -4.813000000     1.223000000
H    -6.337000000    -3.985000000     0.014000000
O     1.659000000    -2.486000000    -1.857000000
H     2.501000000    -2.171000000    -1.529000000
H     1.214000000    -1.698000000    -2.170000000
O    -0.434000000     2.469000000    -3.657000000
H     0.321000000     2.924000000    -4.031000000
H    -0.253000000     1.542000000    -3.810000000
O    -0.892000000     4.375000000    -1.497000000
H    -0.939000000     3.785000000    -0.745000000
H    -0.576000000     3.825000000    -2.214000000
O    -4.730000000    -3.742000000    -4.022000000
H    -4.797000000    -4.440000000    -4.672000000
H    -3.789000000    -3.618000000    -3.899000000
O     1.508000000     4.177000000    -4.772000000
H     2.233000000     4.011000000    -4.170000000
H     1.525000000     5.124000000    -4.911000000
O     4.801000000     1.026000000    -1.647000000
H     5.659000000     0.952000000    -2.066000000
H     4.193000000     0.643000000    -2.279000000
O     3.792000000    -1.294000000    -0.573000000
H     4.533000000    -1.794000000    -0.918000000
H     3.894000000    -0.422000000    -0.954000000
O    -2.025000000     1.289000000     3.564000000
H    -2.264000000     0.363000000     3.604000000
H    -1.539000000     1.445000000     4.374000000
O     2.867000000    -1.855000000     2.040000000
H     3.412000000    -1.614000000     1.291000000
H     2.093000000    -1.297000000     1.963000000
O     4.844000000     5.507000000     3.217000000
H     4.791000000     4.848000000     3.909000000
H     3.941000000     5.611000000     2.916000000
O    -0.125000000    -5.533000000     0.867000000
H     0.105000000    -6.394000000     0.517000000
H    -0.166000000    -5.662000000     1.815000000
