144
-2830.60691
O    -4.949000000     3.465000000    -1.986000000
H    -5.267000000     4.120000000    -1.365000000
H    -4.461000000     2.842000000    -1.449000000
O    -3.251000000     4.144000000     3.509000000
H    -2.606000000     4.154000000     2.803000000
H    -3.994000000     3.659000000     3.149000000
O    -6.642000000     1.359000000    -3.264000000
H    -7.310000000     2.009000000    -3.047000000
H    -5.996000000     1.435000000    -2.562000000
O     4.849000000    -5.306000000    -0.557000000
H     5.582000000    -4.752000000    -0.290000000
H     4.368000000    -4.778000000    -1.194000000
O    -1.144000000     4.209000000    -3.127000000
H    -1.351000000     3.275000000    -3.167000000
H    -1.542000000     4.508000000    -2.310000000
O    -2.383000000    -2.529000000     5.545000000
H    -2.817000000    -2.592000000     4.694000000
H    -2.918000000    -3.070000000     6.127000000
O    -2.131000000     4.516000000    -0.612000000
H    -1.780000000     4.444000000     0.276000000
H    -2.549000000     3.670000000    -0.773000000
O     5.845000000     3.822000000    -2.221000000
H     6.683000000     3.743000000    -2.679000000
H     5.212000000     3.408000000    -2.808000000
O     5.721000000    -0.768000000     1.423000000
H     6.662000000    -0.826000000     1.588000000
H     5.654000000    -0.417000000     0.535000000
O    -5.929000000     0.780000000     4.609000000
H    -5.707000000     0.162000000     5.306000000
H    -5.086000000     1.121000000     4.313000000
O    -5.833000000     4.372000000    -4.386000000
H    -5.564000000     4.208000000    -3.482000000
H    -6.112000000     3.516000000    -4.711000000
O    -0.010000000    -0.388000000     4.684000000
H    -0.638000000    -1.049000000     4.977000000
H     0.807000000    -0.872000000     4.560000000
O    -0.505000000     1.676000000     2.736000000
H    -0.331000000     0.935000000     3.315000000
H    -0.516000000     1.297000000     1.857000000
O     2.884000000     4.309000000    -1.466000000
H     3.067000000     5.245000000    -1.538000000
H     2.252000000     4.134000000    -2.163000000
O     0.149000000    -3.235000000    -1.570000000
H    -0.105000000    -2.569000000    -0.932000000
H     0.109000000    -2.786000000    -2.414000000
O     1.425000000     4.350000000    -3.529000000
H     0.471000000     4.335000000    -3.458000000
H     1.594000000     4.657000000    -4.420000000
O     6.908000000    -3.046000000    -0.824000000
H     7.524000000    -2.501000000    -0.335000000
H     6.416000000    -2.427000000    -1.364000000
O    -0.550000000     1.758000000    -5.759000000
H    -1.152000000     1.738000000    -5.015000000
H    -0.263000000     0.850000000    -5.858000000
O     1.663000000    -1.337000000    -3.291000000
H     1.549000000    -0.409000000    -3.087000000
H     2.455000000    -1.370000000    -3.827000000
O     0.953000000    -5.462000000     1.840000000
H     1.523000000    -5.107000000     2.522000000
H     0.309000000    -5.987000000     2.316000000
O    -8.199000000     1.270000000    -0.127000000
H    -7.503000000     0.675000000    -0.407000000
H    -8.796000000     1.307000000    -0.875000000
O     2.298000000    -1.877000000     4.572000000
H     2.648000000    -1.405000000     5.328000000
H     3.069000000    -2.252000000     4.146000000
O     5.425000000    -1.229000000    -2.457000000
H     4.927000000    -0.451000000    -2.709000000
H     5.287000000    -1.846000000    -3.176000000
O    -1.147000000    -3.981000000     3.453000000
H    -1.532000000    -3.787000000     2.599000000
H    -1.797000000    -4.531000000     3.890000000
O     0.110000000    -1.147000000    -5.593000000
H     0.564000000    -1.622000000    -6.290000000
H     0.491000000    -1.488000000    -4.784000000
O     1.065000000    -5.975000000    -0.957000000
H     0.839000000    -5.812000000    -0.042000000
H     0.798000000    -5.178000000    -1.416000000
O     1.987000000     1.502000000    -3.868000000
H     1.665000000     2.396000000    -3.753000000
H     2.272000000     1.466000000    -4.781000000
O    -4.841000000     2.657000000     1.759000000
H    -4.528000000     1.826000000     1.401000000
H    -5.744000000     2.726000000     1.449000000
O    -3.332000000     7.112000000    -1.095000000
H    -2.691000000     7.821000000    -1.044000000
H    -2.808000000     6.312000000    -1.063000000
O     4.943000000    -2.408000000     3.377000000
H     5.448000000    -1.870000000     2.768000000
H     4.551000000    -3.087000000     2.828000000
O    -5.529000000    -2.638000000    -1.809000000
H    -5.160000000    -2.835000000    -0.947000000
H    -5.198000000    -3.334000000    -2.376000000
O     3.986000000     2.499000000     4.749000000
H     3.119000000     2.591000000     5.145000000
H     3.872000000     2.802000000     3.849000000
O    -4.501000000     0.229000000    -4.809000000
H    -4.459000000     0.571000000    -5.702000000
H    -5.212000000     0.719000000    -4.397000000
O    -4.592000000    -3.947000000     0.756000000
H    -3.800000000    -4.290000000     1.170000000
H    -4.671000000    -3.054000000     1.094000000
O    -5.964000000     5.907000000    -0.530000000
H    -5.101000000     6.235000000    -0.783000000
H    -6.524000000     6.683000000    -0.527000000
O     3.083000000    -4.214000000    -2.161000000
H     2.300000000    -4.224000000    -1.611000000
H     2.864000000    -3.618000000    -2.878000000
O     3.879000000     3.708000000     2.133000000
H     4.264000000     4.067000000     1.334000000
H     3.043000000     3.337000000     1.851000000
O    -6.015000000    -0.153000000    -0.774000000
H    -5.919000000    -1.032000000    -1.139000000
H    -5.149000000     0.058000000    -0.425000000
O     4.476000000     1.297000000    -2.899000000
H     3.553000000     1.429000000    -3.116000000
H     4.560000000     1.623000000    -2.003000000
O     0.869000000    -3.991000000     5.185000000
H     1.265000000    -3.183000000     4.859000000
H     0.038000000    -4.057000000     4.715000000
O    -1.129000000     4.655000000     1.933000000
H    -0.650000000     3.849000000     2.124000000
H    -0.487000000     5.353000000     2.065000000
O    -2.192000000     1.355000000    -3.531000000
H    -2.937000000     0.861000000    -3.872000000
H    -2.442000000     1.578000000    -2.634000000
O     4.119000000     2.291000000    -0.358000000
H     4.200000000     2.280000000     0.596000000
H     3.741000000     3.148000000    -0.556000000
O     3.871000000    -1.803000000    -4.779000000
H     3.532000000    -2.575000000    -5.232000000
H     4.415000000    -1.362000000    -5.432000000
O    -3.231000000     0.898000000     4.360000000
H    -2.830000000     0.955000000     5.227000000
H    -2.604000000     1.327000000     3.778000000
O    -1.402000000    -4.277000000     0.786000000
H    -0.675000000    -4.729000000     1.214000000
H    -0.986000000    -3.740000000     0.111000000
O    -4.829000000    -1.646000000     1.977000000
H    -5.098000000    -1.364000000     2.851000000
H    -4.548000000    -0.841000000     1.542000000
O     3.803000000    -4.832000000     2.565000000
H     4.265000000    -5.280000000     1.857000000
H     3.696000000    -5.500000000     3.242000000
