144
-2838.05823
O    -6.381000000    -3.083000000     3.429000000
H    -5.971000000    -2.609000000     4.153000000
H    -7.318000000    -3.042000000     3.616000000
O    -2.372000000     2.432000000     1.530000000
H    -3.229000000     2.070000000     1.306000000
H    -1.747000000     1.767000000     1.241000000
O    -1.738000000     6.070000000    -3.439000000
H    -1.024000000     5.532000000    -3.783000000
H    -1.359000000     6.944000000    -3.352000000
O    -3.751000000     1.916000000    -3.361000000
H    -3.258000000     1.347000000    -3.953000000
H    -3.889000000     1.384000000    -2.577000000
O     0.766000000    -0.069000000     6.578000000
H     1.374000000     0.663000000     6.682000000
H     0.718000000    -0.466000000     7.447000000
O    -0.248000000     3.132000000     3.754000000
H    -0.079000000     4.021000000     3.443000000
H    -1.117000000     2.920000000     3.414000000
O     3.542000000    -1.706000000    -3.985000000
H     3.367000000    -2.636000000    -4.132000000
H     3.341000000    -1.568000000    -3.059000000
O     5.184000000    -0.030000000    -0.861000000
H     4.433000000    -0.619000000    -0.801000000
H     5.622000000    -0.282000000    -1.675000000
O    -1.818000000     4.882000000     0.321000000
H    -2.090000000     4.062000000     0.732000000
H    -2.171000000     4.834000000    -0.567000000
O     4.589000000     2.194000000     1.095000000
H     3.664000000     2.128000000     1.334000000
H     4.662000000     1.695000000     0.281000000
O     1.058000000    -1.509000000     4.131000000
H     0.816000000    -1.000000000     4.905000000
H     0.223000000    -1.746000000     3.730000000
O     1.841000000     4.709000000    -3.003000000
H     2.097000000     3.803000000    -2.829000000
H     0.994000000     4.638000000    -3.444000000
O    -3.743000000    -0.796000000     3.433000000
H    -3.382000000     0.073000000     3.609000000
H    -2.976000000    -1.364000000     3.358000000
O     1.802000000    -0.130000000    -5.829000000
H     2.547000000    -0.562000000    -5.410000000
H     1.199000000    -0.843000000    -6.039000000
O     0.377000000    -5.669000000     4.487000000
H     0.655000000    -4.763000000     4.349000000
H     0.443000000    -5.798000000     5.433000000
O    -0.045000000     4.023000000    -4.625000000
H     0.679000000     4.259000000    -5.205000000
H    -0.278000000     3.131000000    -4.885000000
O    -3.937000000     0.104000000    -1.386000000
H    -3.273000000    -0.498000000    -1.050000000
H    -4.317000000     0.503000000    -0.603000000
O    -0.992000000    -7.459000000     2.763000000
H    -0.263000000    -7.073000000     3.248000000
H    -1.706000000    -7.504000000     3.398000000
O    -1.785000000     3.359000000     6.745000000
H    -1.408000000     4.192000000     6.462000000
H    -1.736000000     2.799000000     5.970000000
O     2.529000000     2.743000000     3.013000000
H     1.644000000     2.788000000     3.374000000
H     3.103000000     2.803000000     3.776000000
O    -0.213000000    -2.485000000    -6.626000000
H    -0.782000000    -2.923000000    -7.260000000
H    -0.459000000    -2.863000000    -5.782000000
O    -3.695000000    -2.396000000    -3.195000000
H    -3.464000000    -2.462000000    -2.269000000
H    -4.015000000    -3.269000000    -3.425000000
O    -1.797000000    -0.701000000     6.237000000
H    -0.942000000    -0.343000000     6.473000000
H    -2.208000000    -0.014000000     5.712000000
O    -3.156000000     1.620000000     4.652000000
H    -3.733000000     1.119000000     5.227000000
H    -3.728000000     2.276000000     4.252000000
O     5.509000000     0.047000000     2.746000000
H     5.617000000     0.726000000     2.079000000
H     4.561000000    -0.043000000     2.844000000
O     2.332000000    -5.113000000     0.580000000
H     1.400000000    -4.996000000     0.393000000
H     2.397000000    -6.004000000     0.924000000
O    -4.535000000    -1.652000000     6.137000000
H    -3.981000000    -1.196000000     5.503000000
H    -3.972000000    -1.777000000     6.901000000
O    -1.927000000    -3.422000000     4.946000000
H    -1.810000000    -3.165000000     4.031000000
H    -1.812000000    -2.610000000     5.440000000
O    -5.377000000    -4.142000000     0.976000000
H    -4.690000000    -4.703000000     1.337000000
H    -5.695000000    -3.640000000     1.727000000
O    -2.908000000    -5.525000000     1.891000000
H    -2.642000000    -5.953000000     2.706000000
H    -2.535000000    -4.646000000     1.949000000
O     6.580000000     3.450000000    -1.186000000
H     7.443000000     3.323000000    -0.792000000
H     5.969000000     3.380000000    -0.452000000
O    -3.308000000    -7.828000000     0.521000000
H    -3.319000000    -7.027000000     1.045000000
H    -3.175000000    -7.524000000    -0.377000000
O    -0.708000000    -5.379000000     6.961000000
H    -1.066000000    -4.921000000     6.201000000
H    -1.299000000    -5.152000000     7.679000000
O     0.250000000    -4.813000000    -2.653000000
H     1.016000000    -4.311000000    -2.932000000
H     0.420000000    -5.017000000    -1.733000000
O     2.354000000    -3.847000000     3.710000000
H     2.523000000    -3.654000000     2.788000000
H     1.818000000    -3.115000000     4.014000000
O     3.182000000    -2.075000000    -1.083000000
H     3.549000000    -2.929000000    -0.853000000
H     2.327000000    -2.059000000    -0.652000000
O    -2.945000000     4.201000000    -2.034000000
H    -3.089000000     3.403000000    -2.542000000
H    -2.419000000     4.758000000    -2.607000000
O    -4.446000000    -4.783000000     4.947000000
H    -3.695000000    -4.191000000     4.979000000
H    -5.056000000    -4.364000000     4.339000000
O    -2.763000000    -0.237000000    -4.868000000
H    -3.254000000    -0.346000000    -5.682000000
H    -3.005000000    -0.997000000    -4.338000000
O    -4.542000000     1.041000000     1.199000000
H    -5.446000000     1.354000000     1.228000000
H    -4.512000000     0.334000000     1.843000000
O    -3.236000000    -3.520000000    -0.831000000
H    -3.956000000    -3.797000000    -0.265000000
H    -2.464000000    -3.541000000    -0.265000000
O     2.649000000     2.410000000    -6.849000000
H     2.181000000     2.250000000    -7.668000000
H     2.567000000     1.590000000    -6.362000000
O    -1.333000000    -3.851000000    -4.656000000
H    -2.279000000    -3.885000000    -4.513000000
H    -0.959000000    -4.270000000    -3.881000000
O    -0.333000000    -5.464000000    -0.134000000
H    -0.800000000    -6.182000000     0.294000000
H    -0.716000000    -4.671000000     0.241000000
O     2.769000000    -0.484000000     2.054000000
H     2.162000000    -0.077000000     1.435000000
H     2.276000000    -0.536000000     2.873000000
O     0.334000000     5.524000000     1.855000000
H    -0.342000000     5.286000000     1.222000000
H     1.095000000     5.751000000     1.320000000
O    -0.469000000     1.450000000    -5.413000000
H     0.254000000     0.903000000    -5.719000000
H    -1.217000000     0.854000000    -5.367000000
O     2.248000000     6.351000000    -0.073000000
H     2.283000000     5.994000000    -0.961000000
H     2.005000000     7.269000000    -0.193000000
