144
-2806.15321
O     1.803000000     2.328000000    -4.042000000
H     0.899000000     2.573000000    -3.846000000
H     2.286000000     2.534000000    -3.241000000
O     2.409000000     3.350000000     7.263000000
H     1.750000000     3.520000000     6.589000000
H     1.935000000     2.876000000     7.947000000
O    -1.766000000    -4.542000000     4.025000000
H    -1.703000000    -5.331000000     3.486000000
H    -0.950000000    -4.528000000     4.524000000
O     2.684000000    -0.071000000     5.894000000
H     2.828000000    -1.011000000     6.004000000
H     1.983000000    -0.011000000     5.245000000
O    -2.716000000    -2.284000000     2.997000000
H    -2.568000000    -1.849000000     3.837000000
H    -2.306000000    -3.142000000     3.096000000
O    -5.386000000    -1.667000000     2.189000000
H    -4.430000000    -1.635000000     2.142000000
H    -5.677000000    -1.408000000     1.314000000
O    -6.092000000    -1.092000000    -0.361000000
H    -6.954000000    -0.865000000    -0.710000000
H    -5.474000000    -0.661000000    -0.951000000
O    -2.063000000    -2.438000000     0.447000000
H    -2.258000000    -2.187000000     1.350000000
H    -1.541000000    -1.713000000     0.104000000
O     3.722000000    -1.347000000     3.264000000
H     3.429000000    -2.225000000     3.021000000
H     2.918000000    -0.882000000     3.495000000
O     2.652000000    -4.282000000     0.272000000
H     1.710000000    -4.145000000     0.169000000
H     2.963000000    -4.481000000    -0.611000000
O    -0.444000000    -1.624000000     8.276000000
H    -0.596000000    -1.458000000     7.346000000
H    -0.859000000    -2.471000000     8.438000000
O     2.434000000    -2.831000000     6.482000000
H     1.788000000    -3.092000000     5.825000000
H     3.151000000    -3.455000000     6.374000000
O     4.819000000    -1.128000000    -1.791000000
H     4.986000000    -1.119000000    -2.733000000
H     4.441000000    -0.268000000    -1.606000000
O    -3.201000000     4.010000000     5.985000000
H    -2.998000000     3.307000000     5.368000000
H    -2.547000000     3.918000000     6.678000000
O     2.648000000     3.024000000     2.821000000
H     3.047000000     3.212000000     3.671000000
H     2.939000000     3.740000000     2.256000000
O     0.033000000    -4.352000000    -0.148000000
H    -0.153000000    -4.854000000    -0.942000000
H    -0.765000000    -3.847000000     0.008000000
O    -0.684000000     3.625000000    -3.534000000
H    -0.578000000     4.117000000    -2.720000000
H    -1.546000000     3.217000000    -3.457000000
O    -2.252000000     3.698000000     0.422000000
H    -2.817000000     2.948000000     0.608000000
H    -1.397000000     3.446000000     0.770000000
O     5.235000000     0.762000000     5.793000000
H     5.173000000     1.466000000     5.148000000
H     4.348000000     0.405000000     5.844000000
O    -3.960000000     5.906000000     0.976000000
H    -4.789000000     5.714000000     0.538000000
H    -3.461000000     5.091000000     0.912000000
O     4.800000000    -2.580000000     0.542000000
H     4.784000000    -1.977000000    -0.202000000
H     3.956000000    -3.030000000     0.503000000
O    -3.092000000     2.997000000    -2.310000000
H    -3.740000000     2.292000000    -2.308000000
H    -3.167000000     3.392000000    -1.441000000
O    -0.742000000     6.029000000     0.800000000
H    -0.380000000     6.213000000    -0.066000000
H    -1.467000000     5.426000000     0.634000000
O     4.296000000     1.428000000    -0.830000000
H     4.533000000     1.206000000     0.070000000
H     3.366000000     1.652000000    -0.785000000
O    -0.675000000     4.604000000     7.648000000
H    -0.266000000     4.194000000     6.885000000
H    -0.250000000     4.190000000     8.399000000
O     0.649000000    -2.717000000    -6.071000000
H    -0.285000000    -2.507000000    -6.088000000
H     0.684000000    -3.628000000    -5.778000000
O     0.334000000     3.362000000     5.286000000
H     0.461000000     2.508000000     4.873000000
H     0.400000000     3.989000000     4.567000000
O    -1.606000000    -0.853000000     5.491000000
H    -1.027000000    -0.201000000     5.097000000
H    -2.278000000    -0.337000000     5.937000000
O     0.176000000    -2.744000000     4.990000000
H     0.626000000    -2.139000000     4.401000000
H    -0.651000000    -2.307000000     5.196000000
O    -3.658000000    -3.795000000    -3.472000000
H    -3.647000000    -4.214000000    -2.612000000
H    -4.094000000    -4.429000000    -4.042000000
O     2.747000000    -4.104000000     3.012000000
H     2.754000000    -4.205000000     2.060000000
H     2.961000000    -4.975000000     3.347000000
O    -2.388000000     2.571000000     3.896000000
H    -1.849000000     3.190000000     3.404000000
H    -1.795000000     1.850000000     4.106000000
O     3.200000000    -1.414000000    -6.278000000
H     3.678000000    -1.991000000    -6.873000000
H     2.388000000    -1.884000000    -6.088000000
O     1.197000000     0.745000000    -6.187000000
H     1.475000000     1.371000000    -5.519000000
H     1.672000000    -0.059000000    -5.975000000
O     3.939000000    -4.576000000    -2.137000000
H     3.609000000    -4.161000000    -2.933000000
H     4.760000000    -4.121000000    -1.952000000
O    -3.114000000     0.692000000    -5.323000000
H    -2.442000000     0.894000000    -4.672000000
H    -2.976000000    -0.233000000    -5.530000000
O    -1.146000000    -5.396000000    -4.860000000
H    -1.676000000    -6.117000000    -4.519000000
H    -1.009000000    -4.823000000    -4.106000000
O    -1.523000000     2.675000000    -7.349000000
H    -1.679000000     1.802000000    -6.991000000
H    -0.987000000     2.523000000    -8.128000000
O    -5.088000000     2.734000000    -4.688000000
H    -5.470000000     2.871000000    -5.554000000
H    -4.555000000     1.944000000    -4.783000000
O    -4.083000000     1.814000000     1.796000000
H    -4.880000000     2.300000000     2.005000000
H    -3.745000000     1.531000000     2.646000000
O     5.162000000     0.441000000     1.494000000
H     6.075000000     0.226000000     1.304000000
H     4.827000000    -0.325000000     1.961000000
O    -5.932000000    -1.810000000    -4.037000000
H    -5.081000000    -2.078000000    -3.691000000
H    -5.816000000    -0.890000000    -4.274000000
O    -5.102000000     1.389000000    -1.044000000
H    -6.020000000     1.633000000    -0.923000000
H    -4.770000000     1.261000000    -0.155000000
O     5.815000000    -2.119000000     4.723000000
H     5.218000000    -1.676000000     4.121000000
H     5.286000000    -2.814000000     5.115000000
O     1.729000000     2.542000000    -1.009000000
H     1.739000000     3.066000000    -0.208000000
H     1.136000000     1.817000000    -0.813000000
O     0.301000000     3.423000000     1.632000000
H     1.057000000     3.053000000     2.088000000
H     0.300000000     4.348000000     1.881000000
O    -0.715000000     4.809000000    -6.052000000
H    -0.474000000     4.389000000    -5.226000000
H    -1.283000000     4.174000000    -6.488000000
O    -2.631000000    -2.061000000    -5.307000000
H    -2.825000000    -2.504000000    -4.482000000
H    -2.257000000    -2.744000000    -5.864000000
