144
-2785.50030
O    -0.065000000     4.888000000    -2.545000000
H     0.353000000     5.601000000    -3.028000000
H    -1.003000000     5.063000000    -2.624000000
O    -0.980000000     5.200000000     4.640000000
H    -1.413000000     4.347000000     4.680000000
H    -0.924000000     5.483000000     5.553000000
O    -1.786000000     4.906000000     0.876000000
H    -2.190000000     4.684000000     0.037000000
H    -2.422000000     5.478000000     1.304000000
O     2.239000000     0.024000000     6.236000000
H     2.284000000    -0.139000000     5.294000000
H     2.387000000    -0.833000000     6.635000000
O    -6.186000000     1.663000000    -0.167000000
H    -6.511000000     2.331000000    -0.771000000
H    -5.908000000     0.943000000    -0.733000000
O     0.006000000     2.509000000    -4.575000000
H     0.653000000     1.804000000    -4.578000000
H    -0.004000000     2.821000000    -3.670000000
O    -1.217000000     3.814000000    -6.743000000
H    -1.721000000     4.483000000    -6.280000000
H    -0.937000000     3.208000000    -6.057000000
O     4.515000000     0.318000000     0.327000000
H     4.013000000     0.506000000     1.120000000
H     4.938000000    -0.522000000     0.504000000
O    -3.622000000    -0.577000000     0.593000000
H    -3.475000000     0.083000000    -0.085000000
H    -3.155000000    -0.243000000     1.359000000
O     3.775000000    -4.438000000     0.728000000
H     3.287000000    -4.899000000     0.046000000
H     3.107000000    -3.958000000     1.217000000
O     0.399000000    -4.509000000     2.297000000
H     0.772000000    -5.371000000     2.117000000
H     0.580000000    -4.358000000     3.224000000
O     1.678000000     4.813000000     6.487000000
H     1.146000000     4.020000000     6.558000000
H     1.356000000     5.381000000     7.187000000
O     3.293000000     3.646000000    -1.606000000
H     3.892000000     3.835000000    -2.329000000
H     2.881000000     2.816000000    -1.848000000
O    -1.129000000    -3.203000000     5.320000000
H    -1.931000000    -3.676000000     5.097000000
H    -0.426000000    -3.833000000     5.161000000
O    -1.489000000    -0.362000000     5.087000000
H    -1.365000000    -1.307000000     5.175000000
H    -1.857000000    -0.089000000     5.928000000
O     6.332000000     2.809000000     2.308000000
H     6.787000000     1.969000000     2.251000000
H     5.515000000     2.608000000     2.766000000
O     1.747000000    -3.270000000     4.493000000
H     1.822000000    -2.417000000     4.064000000
H     1.736000000    -3.067000000     5.428000000
O    -3.721000000     4.611000000    -1.420000000
H    -3.501000000     5.285000000    -2.063000000
H    -4.678000000     4.593000000    -1.409000000
O     4.025000000     2.853000000     6.615000000
H     3.193000000     3.242000000     6.346000000
H     4.426000000     2.555000000     5.799000000
O    -5.918000000    -1.978000000     0.823000000
H    -6.198000000    -1.573000000     1.644000000
H    -5.097000000    -1.536000000     0.606000000
O     5.553000000    -2.101000000     0.854000000
H     5.398000000    -1.820000000     1.756000000
H     5.197000000    -2.989000000     0.816000000
O     1.081000000     4.714000000     0.608000000
H     0.142000000     4.843000000     0.737000000
H     1.178000000     4.583000000    -0.335000000
O    -3.107000000     3.270000000     2.790000000
H    -2.531000000     3.530000000     2.071000000
H    -3.503000000     4.089000000     3.087000000
O     4.635000000    -1.360000000     3.273000000
H     4.946000000    -1.792000000     4.069000000
H     3.688000000    -1.289000000     3.394000000
O    -1.086000000    -7.257000000     0.111000000
H    -1.326000000    -7.057000000    -0.794000000
H    -0.515000000    -6.535000000     0.373000000
O    -4.127000000    -0.371000000    -4.309000000
H    -4.302000000    -0.204000000    -3.383000000
H    -4.194000000     0.489000000    -4.724000000
O     1.117000000     6.430000000     3.378000000
H     1.395000000     5.958000000     2.593000000
H     0.554000000     5.811000000     3.843000000
O    -3.135000000    -2.424000000    -6.003000000
H    -4.023000000    -2.726000000    -6.196000000
H    -3.259000000    -1.661000000    -5.438000000
O     2.621000000     0.814000000    -1.754000000
H     2.105000000     0.037000000    -1.967000000
H     3.031000000     0.607000000    -0.915000000
O     2.180000000    -1.676000000    -3.543000000
H     1.977000000    -2.396000000    -4.140000000
H     2.979000000    -1.955000000    -3.095000000
O     4.531000000     1.453000000     3.887000000
H     3.588000000     1.541000000     3.748000000
H     4.711000000     0.527000000     3.728000000
O     1.713000000    -2.581000000     7.305000000
H     1.164000000    -1.843000000     7.569000000
H     1.230000000    -3.355000000     7.594000000
O    -5.103000000    -4.501000000    -1.825000000
H    -4.232000000    -4.115000000    -1.731000000
H    -5.328000000    -4.801000000    -0.944000000
O    -6.072000000    -2.071000000    -3.337000000
H    -5.360000000    -2.708000000    -3.267000000
H    -5.776000000    -1.455000000    -4.007000000
O     0.372000000     2.441000000     6.737000000
H    -0.111000000     2.639000000     5.935000000
H     0.858000000     1.642000000     6.533000000
O     4.313000000    -4.435000000     4.463000000
H     4.698000000    -3.685000000     4.916000000
H     3.368000000    -4.296000000     4.531000000
O    -0.278000000     2.159000000     4.219000000
H     0.528000000     1.945000000     3.749000000
H    -0.625000000     1.312000000     4.498000000
O     0.206000000    -4.993000000    -2.267000000
H     0.172000000    -5.684000000    -2.929000000
H     0.235000000    -4.180000000    -2.771000000
O     0.018000000    -2.038000000    -7.022000000
H     0.802000000    -1.488000000    -7.018000000
H    -0.699000000    -1.431000000    -7.207000000
O    -2.851000000     0.525000000     2.843000000
H    -2.276000000     0.088000000     3.471000000
H    -2.561000000     1.437000000     2.847000000
O    -1.170000000    -3.275000000    -4.034000000
H    -1.913000000    -3.183000000    -4.630000000
H    -0.615000000    -3.939000000    -4.443000000
O    -2.036000000    -3.661000000     1.967000000
H    -1.883000000    -3.051000000     1.245000000
H    -1.173000000    -4.026000000     2.159000000
O     1.750000000    -5.922000000    -0.322000000
H     1.758000000    -6.739000000    -0.821000000
H     1.347000000    -5.285000000    -0.912000000
O    -3.878000000     1.216000000    -1.434000000
H    -3.381000000     1.392000000    -2.233000000
H    -4.130000000     2.082000000    -1.113000000
O     2.423000000     0.544000000    -5.174000000
H     2.250000000    -0.319000000    -4.796000000
H     2.431000000     0.394000000    -6.119000000
O    -2.911000000    -3.138000000    -1.552000000
H    -2.488000000    -2.506000000    -0.969000000
H    -2.290000000    -3.251000000    -2.272000000
O     2.975000000     2.798000000     1.493000000
H     2.535000000     2.235000000     2.129000000
H     2.306000000     3.428000000     1.226000000
O    -5.462000000     2.271000000    -4.875000000
H    -5.115000000     2.817000000    -5.580000000
H    -6.009000000     1.624000000    -5.321000000
