144
-2803.71171
O    -0.533000000     3.961000000    -6.733000000
H    -0.682000000     3.989000000    -7.678000000
H    -0.821000000     3.086000000    -6.471000000
O    -1.713000000     3.847000000     3.531000000
H    -1.394000000     4.084000000     2.660000000
H    -1.048000000     3.251000000     3.875000000
O    -2.065000000     3.754000000    -3.462000000
H    -2.666000000     4.100000000    -2.802000000
H    -2.560000000     3.793000000    -4.280000000
O    -0.714000000     6.883000000    -0.952000000
H    -0.618000000     5.945000000    -0.783000000
H    -0.989000000     7.250000000    -0.112000000
O    -0.386000000    -2.290000000    -6.643000000
H    -1.082000000    -1.861000000    -7.142000000
H    -0.295000000    -3.151000000    -7.051000000
O    -0.052000000    -2.720000000     5.299000000
H     0.435000000    -2.484000000     4.509000000
H     0.480000000    -2.382000000     6.019000000
O     2.812000000     3.355000000    -4.704000000
H     2.250000000     2.842000000    -5.284000000
H     3.700000000     3.066000000    -4.914000000
O     3.257000000    -1.062000000     4.927000000
H     4.073000000    -1.154000000     4.435000000
H     2.687000000    -0.550000000     4.353000000
O    -0.568000000    -6.386000000     2.821000000
H    -0.627000000    -5.431000000     2.857000000
H    -1.242000000    -6.643000000     2.192000000
O    -4.678000000     1.244000000    -5.977000000
H    -4.412000000     2.148000000    -5.809000000
H    -4.758000000     0.852000000    -5.108000000
O     0.566000000     4.174000000    -2.649000000
H    -0.311000000     4.008000000    -2.994000000
H     1.111000000     3.492000000    -3.041000000
O     3.516000000    -2.069000000    -2.461000000
H     3.624000000    -1.121000000    -2.532000000
H     2.889000000    -2.291000000    -3.149000000
O     2.884000000     5.990000000     1.516000000
H     2.115000000     6.277000000     2.008000000
H     2.572000000     5.898000000     0.616000000
O     4.064000000    -5.997000000     0.692000000
H     3.741000000    -5.258000000     1.208000000
H     4.915000000    -5.707000000     0.363000000
O    -4.446000000    -1.315000000    -1.146000000
H    -5.333000000    -1.514000000    -0.846000000
H    -4.020000000    -2.169000000    -1.218000000
O    -0.873000000    -4.917000000    -2.120000000
H    -0.250000000    -5.549000000    -2.479000000
H    -1.051000000    -4.318000000    -2.845000000
O    -3.696000000     3.903000000    -5.590000000
H    -4.533000000     3.954000000    -6.053000000
H    -3.104000000     4.451000000    -6.104000000
O    -1.587000000    -3.514000000     2.789000000
H    -1.160000000    -3.008000000     3.480000000
H    -1.353000000    -3.059000000     1.979000000
O     2.448000000     5.673000000    -1.218000000
H     3.170000000     5.051000000    -1.309000000
H     1.780000000     5.355000000    -1.825000000
O     3.497000000     0.653000000     7.224000000
H     4.187000000     0.525000000     7.876000000
H     3.481000000    -0.165000000     6.728000000
O     3.608000000     3.290000000     6.525000000
H     3.402000000     2.400000000     6.811000000
H     3.297000000     3.330000000     5.621000000
O     2.870000000    -4.134000000     2.682000000
H     2.543000000    -4.193000000     3.580000000
H     2.326000000    -3.461000000     2.273000000
O     4.477000000     1.037000000     0.273000000
H     4.013000000     0.464000000    -0.338000000
H     4.295000000     1.922000000    -0.043000000
O     0.388000000     1.499000000     7.972000000
H    -0.547000000     1.326000000     7.855000000
H     0.781000000     1.268000000     7.130000000
O     0.259000000     6.103000000     2.212000000
H     0.699000000     6.228000000     3.053000000
H    -0.611000000     6.482000000     2.338000000
O     3.660000000     1.625000000     2.833000000
H     2.968000000     1.031000000     3.122000000
H     3.899000000     1.309000000     1.962000000
O     1.309000000     1.277000000    -5.571000000
H     1.367000000     0.340000000    -5.385000000
H     0.380000000     1.430000000    -5.744000000
O    -2.926000000    -1.063000000     1.339000000
H    -3.452000000    -1.412000000     0.619000000
H    -2.035000000    -1.027000000     0.990000000
O     0.899000000     2.534000000     4.431000000
H     1.424000000     3.071000000     3.838000000
H     1.160000000     1.635000000     4.236000000
O    -3.375000000     5.358000000    -1.915000000
H    -4.309000000     5.335000000    -1.708000000
H    -3.067000000     6.183000000    -1.540000000
O    -5.565000000     2.545000000    -0.985000000
H    -5.792000000     3.474000000    -1.021000000
H    -5.109000000     2.442000000    -0.150000000
O    -0.801000000     6.013000000    -5.129000000
H    -0.725000000     5.161000000    -5.558000000
H    -0.276000000     5.928000000    -4.334000000
O     3.623000000     0.620000000    -2.559000000
H     4.318000000     0.501000000    -3.206000000
H     3.009000000     1.224000000    -2.975000000
O     1.735000000    -1.774000000    -5.334000000
H     0.890000000    -1.740000000    -5.783000000
H     1.974000000    -2.700000000    -5.343000000
O     0.317000000     5.030000000     5.802000000
H     0.601000000     4.257000000     5.315000000
H    -0.291000000     4.691000000     6.458000000
O    -3.990000000    -4.843000000     1.794000000
H    -4.035000000    -5.568000000     2.417000000
H    -3.247000000    -4.317000000     2.092000000
O     6.108000000     3.302000000     2.444000000
H     6.810000000     2.657000000     2.528000000
H     5.329000000     2.854000000     2.775000000
O    -1.518000000    -6.816000000    -0.113000000
H    -1.144000000    -7.609000000    -0.497000000
H    -1.299000000    -6.122000000    -0.735000000
O    -0.210000000    -5.505000000     6.442000000
H    -0.959000000    -6.094000000     6.350000000
H    -0.418000000    -4.763000000     5.874000000
O    -2.149000000     0.759000000     3.976000000
H    -1.366000000     0.460000000     3.513000000
H    -1.904000000     0.735000000     4.901000000
O    -3.316000000    -6.092000000    -2.279000000
H    -3.906000000    -5.360000000    -2.460000000
H    -2.439000000    -5.733000000    -2.419000000
O    -4.296000000     1.803000000     1.447000000
H    -4.159000000     2.174000000     2.319000000
H    -3.853000000     0.955000000     1.475000000
O    -2.022000000    -3.539000000    -4.624000000
H    -1.516000000    -3.372000000    -5.420000000
H    -2.780000000    -2.959000000    -4.695000000
O    -4.403000000    -1.993000000    -4.626000000
H    -4.049000000    -1.141000000    -4.372000000
H    -5.326000000    -1.954000000    -4.372000000
O    -1.715000000     1.275000000    -5.978000000
H    -1.803000000     0.515000000    -6.554000000
H    -2.601000000     1.433000000    -5.652000000
O    -3.248000000    -3.698000000    -0.574000000
H    -2.495000000    -4.199000000    -0.889000000
H    -3.655000000    -4.265000000     0.081000000
O     2.984000000     3.988000000     3.584000000
H     3.346000000     3.171000000     3.240000000
H     3.131000000     4.627000000     2.887000000
O    -4.304000000     0.526000000    -3.282000000
H    -4.566000000     1.365000000    -2.902000000
H    -4.185000000    -0.051000000    -2.529000000
