144
-2795.54308
O    -6.116000000     0.737000000    -2.401000000
H    -6.416000000     1.251000000    -3.150000000
H    -5.187000000     0.582000000    -2.574000000
O    -4.071000000     0.255000000    -7.294000000
H    -4.183000000    -0.612000000    -7.686000000
H    -3.291000000     0.170000000    -6.745000000
O     2.778000000     5.797000000    -2.240000000
H     2.360000000     5.520000000    -1.425000000
H     3.023000000     6.710000000    -2.085000000
O    -1.605000000     3.306000000    -4.968000000
H    -0.912000000     3.334000000    -4.307000000
H    -1.819000000     4.225000000    -5.130000000
O    -1.580000000     0.309000000    -6.291000000
H    -1.062000000    -0.439000000    -6.588000000
H    -1.136000000     0.607000000    -5.497000000
O    -5.162000000    -2.605000000     0.963000000
H    -5.990000000    -2.172000000     1.170000000
H    -4.542000000    -1.887000000     0.834000000
O    -3.334000000    -0.687000000     0.647000000
H    -3.448000000     0.153000000     1.091000000
H    -2.609000000    -0.541000000     0.040000000
O     2.981000000    -1.944000000     5.689000000
H     2.103000000    -2.118000000     6.028000000
H     2.831000000    -1.527000000     4.840000000
O    -0.021000000    -1.803000000     4.453000000
H    -0.919000000    -1.521000000     4.279000000
H     0.518000000    -1.246000000     3.890000000
O     1.423000000     5.056000000     0.183000000
H     0.698000000     5.681000000     0.154000000
H     1.546000000     4.876000000     1.115000000
O     2.667000000     0.994000000    -1.279000000
H     1.972000000     0.729000000    -0.678000000
H     2.339000000     0.754000000    -2.146000000
O    -1.827000000    -2.375000000    -5.210000000
H    -2.038000000    -3.180000000    -5.681000000
H    -2.666000000    -2.075000000    -4.860000000
O     5.770000000    -1.706000000     4.414000000
H     6.448000000    -1.051000000     4.577000000
H     5.045000000    -1.446000000     4.982000000
O     1.279000000    -4.324000000    -1.770000000
H     1.343000000    -4.453000000    -2.717000000
H     0.341000000    -4.375000000    -1.585000000
O     2.378000000     0.148000000    -4.088000000
H     3.282000000     0.204000000    -4.397000000
H     1.893000000     0.744000000    -4.659000000
O     4.986000000    -1.676000000     7.474000000
H     4.197000000    -1.674000000     6.931000000
H     5.644000000    -1.227000000     6.943000000
O     3.841000000     3.075000000     0.411000000
H     2.963000000     3.345000000     0.143000000
H     4.290000000     2.872000000    -0.409000000
O    -0.276000000    -6.186000000     2.555000000
H     0.245000000    -5.404000000     2.739000000
H     0.144000000    -6.579000000     1.791000000
O     1.240000000     1.410000000     5.680000000
H     0.532000000     2.048000000     5.581000000
H     1.561000000     1.270000000     4.789000000
O     3.922000000    -1.714000000     1.991000000
H     3.189000000    -1.301000000     2.449000000
H     4.607000000    -1.789000000     2.656000000
O     0.782000000    -1.079000000    -7.435000000
H     0.161000000    -1.799000000    -7.326000000
H     1.639000000    -1.503000000    -7.461000000
O     5.795000000    -3.971000000     2.552000000
H     5.724000000    -3.413000000     3.327000000
H     5.326000000    -3.493000000     1.869000000
O     1.437000000    -3.884000000     3.020000000
H     1.045000000    -3.240000000     3.609000000
H     1.998000000    -4.415000000     3.585000000
O     5.062000000     2.359000000    -1.998000000
H     5.693000000     1.923000000    -2.572000000
H     4.326000000     1.749000000    -1.945000000
O     4.243000000     0.828000000     4.174000000
H     3.318000000     0.730000000     3.948000000
H     4.245000000     1.438000000     4.912000000
O    -3.753000000     1.991000000    -3.932000000
H    -2.906000000     2.013000000    -4.377000000
H    -4.340000000     2.480000000    -4.509000000
O     1.683000000     4.180000000     3.007000000
H     1.988000000     4.553000000     3.834000000
H     2.026000000     3.286000000     3.007000000
O    -2.896000000    -1.185000000     4.083000000
H    -3.464000000    -1.911000000     4.340000000
H    -3.494000000    -0.451000000     3.942000000
O    -4.362000000    -3.720000000    -2.034000000
H    -5.166000000    -3.596000000    -1.529000000
H    -3.660000000    -3.477000000    -1.431000000
O     5.111000000    -0.666000000    -1.621000000
H     4.854000000    -1.465000000    -2.079000000
H     4.431000000    -0.539000000    -0.959000000
O     2.997000000    -2.546000000    -4.617000000
H     2.304000000    -2.698000000    -5.260000000
H     2.666000000    -1.831000000    -4.073000000
O    -1.248000000     2.052000000     4.613000000
H    -0.780000000     1.344000000     4.171000000
H    -2.170000000     1.892000000     4.412000000
O     3.128000000    -2.272000000    -0.587000000
H     3.276000000    -2.303000000     0.359000000
H     2.343000000    -2.803000000    -0.724000000
O    -2.901000000    -4.159000000     1.618000000
H    -2.502000000    -3.706000000     2.361000000
H    -3.583000000    -3.562000000     1.311000000
O     5.648000000     0.696000000     1.876000000
H     5.125000000     0.921000000     1.106000000
H     5.048000000     0.808000000     2.613000000
O    -5.988000000    -1.087000000    -5.380000000
H    -5.330000000    -1.768000000    -5.247000000
H    -5.505000000    -0.358000000    -5.769000000
O    -4.440000000    -3.187000000    -4.599000000
H    -5.162000000    -3.802000000    -4.729000000
H    -4.206000000    -3.284000000    -3.675000000
O    -1.541000000    -4.559000000    -0.674000000
H    -1.928000000    -5.366000000    -1.013000000
H    -1.801000000    -4.538000000     0.247000000
O    -1.013000000     5.300000000     2.486000000
H    -0.495000000     6.092000000     2.345000000
H    -0.364000000     4.601000000     2.572000000
O     0.222000000    -4.491000000    -5.059000000
H     0.337000000    -4.477000000    -6.010000000
H    -0.503000000    -3.889000000    -4.896000000
O     3.507000000    -6.071000000    -0.626000000
H     4.306000000    -5.545000000    -0.597000000
H     2.828000000    -5.459000000    -0.910000000
O     0.336000000    -1.912000000     7.250000000
H     0.094000000    -1.473000000     6.434000000
H     0.924000000    -1.297000000     7.688000000
O     0.825000000     3.888000000    -3.616000000
H     1.226000000     4.743000000    -3.456000000
H     1.558000000     3.322000000    -3.858000000
O     5.253000000     4.983000000     1.794000000
H     4.779000000     4.319000000     1.294000000
H     4.625000000     5.280000000     2.453000000
O     2.248000000     5.088000000     5.667000000
H     2.160000000     4.678000000     6.528000000
H     1.862000000     5.957000000     5.775000000
O    -4.904000000     3.276000000    -1.233000000
H    -5.749000000     3.282000000    -1.681000000
H    -4.406000000     2.585000000    -1.670000000
O     5.310000000     3.134000000     6.543000000
H     5.152000000     3.131000000     5.599000000
H     6.133000000     3.612000000     6.647000000
O     1.581000000     0.184000000     8.730000000
H     1.453000000     0.402000000     7.806000000
H     0.965000000     0.748000000     9.197000000
