144
-2819.20685
O    -4.054000000     0.926000000    -5.483000000
H    -3.210000000     1.048000000    -5.048000000
H    -3.859000000     1.024000000    -6.415000000
O     2.651000000     4.580000000    -3.550000000
H     1.732000000     4.836000000    -3.630000000
H     2.778000000     3.925000000    -4.236000000
O    -4.757000000    -1.556000000     1.841000000
H    -5.408000000    -0.886000000     2.051000000
H    -3.978000000    -1.062000000     1.588000000
O    -2.528000000    -0.125000000     1.517000000
H    -3.139000000     0.324000000     0.932000000
H    -1.706000000    -0.152000000     1.029000000
O    -4.159000000     3.893000000     0.932000000
H    -3.327000000     3.981000000     1.397000000
H    -4.178000000     4.638000000     0.332000000
O     4.364000000    -0.101000000     4.514000000
H     3.866000000     0.298000000     5.228000000
H     3.709000000    -0.294000000     3.843000000
O     1.219000000    -2.423000000     5.031000000
H     1.573000000    -1.965000000     5.793000000
H     1.215000000    -1.764000000     4.336000000
O     1.019000000    -6.717000000    -2.056000000
H     1.950000000    -6.504000000    -1.984000000
H     0.572000000    -5.878000000    -1.945000000
O    -0.206000000    -6.406000000     1.470000000
H    -0.677000000    -6.018000000     2.207000000
H    -0.640000000    -6.051000000     0.694000000
O     0.135000000     5.675000000    -3.507000000
H     0.539000000     6.336000000    -4.071000000
H    -0.063000000     6.142000000    -2.695000000
O     3.781000000     0.644000000    -1.845000000
H     3.614000000    -0.231000000    -1.494000000
H     4.001000000     0.495000000    -2.765000000
O    -1.128000000    -0.766000000    -6.428000000
H    -1.642000000    -1.478000000    -6.046000000
H    -1.306000000    -0.818000000    -7.367000000
O     0.182000000     1.278000000    -5.395000000
H    -0.513000000     1.899000000    -5.177000000
H    -0.276000000     0.452000000    -5.553000000
O     5.815000000    -3.393000000     2.949000000
H     6.156000000    -2.500000000     2.979000000
H     4.900000000    -3.291000000     2.687000000
O    -0.391000000    -4.552000000    -2.806000000
H     0.222000000    -4.278000000    -3.488000000
H    -1.252000000    -4.497000000    -3.221000000
O     6.875000000    -1.144000000     4.253000000
H     6.078000000    -0.749000000     4.607000000
H     7.515000000    -1.067000000     4.961000000
O    -4.636000000    -2.031000000    -2.694000000
H    -4.508000000    -1.083000000    -2.734000000
H    -5.577000000    -2.151000000    -2.824000000
O     3.801000000     3.241000000    -1.447000000
H     3.484000000     2.357000000    -1.629000000
H     3.492000000     3.764000000    -2.187000000
O     2.449000000    -1.800000000    -1.175000000
H     2.012000000    -2.617000000    -0.935000000
H     1.932000000    -1.118000000    -0.745000000
O     2.426000000     1.789000000     5.734000000
H     1.880000000     2.467000000     6.133000000
H     2.199000000     1.815000000     4.804000000
O     3.174000000    -2.945000000     2.579000000
H     2.693000000    -3.741000000     2.357000000
H     2.495000000    -2.286000000     2.721000000
O     2.093000000    -5.004000000     1.415000000
H     1.339000000    -5.581000000     1.288000000
H     2.668000000    -5.195000000     0.675000000
O     4.045000000    -2.851000000     5.300000000
H     4.301000000    -3.090000000     4.409000000
H     3.529000000    -2.052000000     5.195000000
O     4.164000000     2.150000000     1.334000000
H     3.352000000     2.000000000     1.818000000
H     3.891000000     2.630000000     0.552000000
O    -3.806000000     2.824000000    -2.700000000
H    -3.303000000     3.636000000    -2.638000000
H    -4.719000000     3.102000000    -2.637000000
O     1.359000000     4.091000000     3.311000000
H     2.045000000     4.351000000     3.926000000
H     1.522000000     3.162000000     3.148000000
O    -1.814000000     6.210000000     0.957000000
H    -1.713000000     5.668000000     1.739000000
H    -1.260000000     5.789000000     0.300000000
O    -2.822000000     0.052000000     4.278000000
H    -1.941000000     0.120000000     4.647000000
H    -2.680000000    -0.067000000     3.339000000
O    -3.391000000    -4.317000000    -3.496000000
H    -3.943000000    -5.099000000    -3.511000000
H    -3.985000000    -3.610000000    -3.244000000
O     2.168000000    -0.642000000    -5.067000000
H     1.477000000     0.019000000    -5.037000000
H     2.981000000    -0.142000000    -4.995000000
O    -4.207000000     1.372000000    -0.388000000
H    -3.785000000     1.584000000    -1.221000000
H    -4.392000000     2.223000000     0.010000000
O     3.814000000    -3.880000000    -2.646000000
H     3.489000000    -3.090000000    -2.213000000
H     4.758000000    -3.742000000    -2.717000000
O     1.932000000    -4.909000000     6.143000000
H     1.409000000    -4.293000000     5.630000000
H     2.824000000    -4.567000000     6.092000000
O    -3.893000000    -3.052000000    -0.416000000
H    -4.180000000    -2.389000000     0.212000000
H    -3.993000000    -2.632000000    -1.270000000
O    -6.470000000    -0.106000000    -1.628000000
H    -6.770000000    -0.694000000    -0.934000000
H    -6.158000000     0.671000000    -1.165000000
O     5.790000000     2.338000000     3.812000000
H     5.391000000     1.480000000     3.954000000
H     5.297000000     2.714000000     3.082000000
O     5.957000000     0.514000000    -0.141000000
H     5.392000000     0.886000000    -0.818000000
H     5.587000000     0.834000000     0.682000000
O    -1.998000000     3.134000000    -4.816000000
H    -2.688000000     2.909000000    -4.192000000
H    -2.467000000     3.455000000    -5.586000000
O    -2.269000000    -3.089000000    -5.661000000
H    -2.409000000    -3.625000000    -4.880000000
H    -3.073000000    -3.193000000    -6.170000000
O    -1.788000000    -4.986000000    -0.570000000
H    -1.174000000    -4.723000000    -1.255000000
H    -2.398000000    -4.252000000    -0.499000000
O     0.941000000     6.387000000    -0.241000000
H     0.976000000     7.303000000     0.035000000
H     1.182000000     5.892000000     0.542000000
O     0.773000000    -2.890000000    -4.672000000
H     1.398000000    -2.175000000    -4.552000000
H     0.282000000    -2.649000000    -5.458000000
O    -6.481000000     1.199000000    -4.027000000
H    -6.616000000     0.661000000    -3.248000000
H    -5.555000000     1.084000000    -4.240000000
O     2.570000000     5.528000000     5.581000000
H     3.382000000     5.791000000     6.014000000
H     2.265000000     4.772000000     6.083000000
O    -1.783000000     4.231000000     2.857000000
H    -1.952000000     4.576000000     3.734000000
H    -0.990000000     3.704000000     2.955000000
O    -2.504000000     5.359000000    -2.899000000
H    -2.626000000     6.308000000    -2.930000000
H    -1.784000000     5.190000000    -3.506000000
O    -0.995000000    -4.891000000     4.015000000
H    -1.672000000    -4.328000000     4.391000000
H    -0.248000000    -4.309000000     3.876000000
O     2.342000000    -0.590000000     7.054000000
H     2.331000000     0.299000000     6.700000000
H     1.763000000    -0.553000000     7.815000000
