144
-2824.04317
O    -3.980000000     0.288000000    -1.778000000
H    -3.113000000     0.598000000    -1.515000000
H    -4.318000000     0.978000000    -2.348000000
O    -3.296000000    -0.608000000    -6.751000000
H    -3.027000000    -1.513000000    -6.591000000
H    -2.822000000    -0.353000000    -7.542000000
O    -1.298000000     3.723000000     6.560000000
H    -2.190000000     3.728000000     6.908000000
H    -1.204000000     2.862000000     6.153000000
O     1.561000000     5.300000000    -0.552000000
H     1.693000000     5.132000000     0.381000000
H     0.855000000     5.946000000    -0.582000000
O    -1.128000000     3.689000000    -3.818000000
H    -0.329000000     4.194000000    -3.667000000
H    -0.840000000     2.929000000    -4.324000000
O    -2.583000000     5.934000000     0.945000000
H    -2.231000000     5.507000000     1.727000000
H    -2.458000000     5.293000000     0.246000000
O     1.440000000     0.256000000    -5.961000000
H     1.384000000    -0.457000000    -6.598000000
H     0.811000000     0.019000000    -5.280000000
O    -2.770000000    -1.858000000     0.935000000
H    -2.826000000    -1.323000000     1.727000000
H    -2.264000000    -1.324000000     0.322000000
O    -4.206000000     0.544000000     1.890000000
H    -4.581000000    -0.101000000     1.290000000
H    -3.937000000     1.269000000     1.325000000
O     3.619000000    -3.773000000     5.388000000
H     4.047000000    -4.282000000     4.699000000
H     2.739000000    -3.606000000     5.050000000
O     1.094000000    -3.724000000     3.878000000
H     0.220000000    -3.588000000     4.245000000
H     1.389000000    -2.847000000     3.634000000
O     2.476000000     4.820000000     2.056000000
H     2.729000000     5.450000000     2.731000000
H     2.092000000     4.090000000     2.542000000
O     3.210000000    -0.732000000    -1.077000000
H     3.782000000    -0.558000000    -0.329000000
H     3.198000000     0.091000000    -1.566000000
O    -2.047000000    -3.673000000    -3.979000000
H    -2.721000000    -3.116000000    -3.589000000
H    -2.233000000    -3.653000000    -4.918000000
O    -1.218000000    -5.911000000    -2.818000000
H    -1.553000000    -5.186000000    -3.347000000
H    -1.209000000    -5.570000000    -1.924000000
O     1.769000000    -6.238000000    -2.887000000
H     0.957000000    -5.737000000    -2.809000000
H     1.483000000    -7.149000000    -2.961000000
O    -3.419000000     1.779000000    -5.572000000
H    -2.650000000     2.094000000    -6.047000000
H    -3.533000000     0.877000000    -5.869000000
O     3.514000000     1.763000000    -4.924000000
H     4.128000000     1.245000000    -5.443000000
H     2.650000000     1.440000000    -5.181000000
O     4.439000000     2.684000000    -0.220000000
H     4.461000000     3.462000000     0.337000000
H     4.202000000     3.016000000    -1.086000000
O     0.489000000    -1.143000000     5.978000000
H     0.297000000    -0.207000000     5.932000000
H     0.786000000    -1.370000000     5.097000000
O     2.601000000    -3.128000000     0.271000000
H     2.564000000    -3.239000000     1.221000000
H     2.354000000    -2.215000000     0.126000000
O    -3.161000000     2.960000000     3.645000000
H    -2.337000000     2.734000000     3.215000000
H    -3.810000000     2.386000000     3.239000000
O     1.655000000    -6.425000000     4.727000000
H     1.374000000    -5.560000000     4.429000000
H     1.711000000    -6.947000000     3.926000000
O    -3.713000000     4.878000000    -6.072000000
H    -3.131000000     4.163000000    -5.817000000
H    -4.574000000     4.468000000    -6.153000000
O     4.163000000     3.404000000    -2.850000000
H     5.061000000     3.673000000    -3.045000000
H     3.925000000     2.821000000    -3.571000000
O     3.795000000     0.285000000     3.784000000
H     3.033000000    -0.291000000     3.851000000
H     4.482000000    -0.171000000     4.270000000
O    -4.016000000     2.572000000    -3.090000000
H    -3.494000000     3.352000000    -2.901000000
H    -4.000000000     2.499000000    -4.044000000
O     1.493000000     3.071000000     3.752000000
H     1.881000000     3.035000000     4.626000000
H     1.294000000     2.158000000     3.540000000
O    -2.140000000     4.736000000    -1.509000000
H    -2.262000000     5.640000000    -1.799000000
H    -1.730000000     4.299000000    -2.255000000
O    -1.339000000    -2.954000000     4.709000000
H    -2.218000000    -3.297000000     4.548000000
H    -1.467000000    -2.012000000     4.823000000
O    -4.038000000    -2.100000000    -3.244000000
H    -4.329000000    -1.425000000    -2.631000000
H    -4.638000000    -2.025000000    -3.986000000
O     5.073000000    -3.809000000    -0.700000000
H     4.276000000    -3.457000000    -0.302000000
H     5.741000000    -3.147000000    -0.522000000
O     3.029000000    -2.267000000    -3.173000000
H     2.107000000    -2.151000000    -3.404000000
H     3.089000000    -1.958000000    -2.268000000
O    -1.304000000     1.310000000     5.481000000
H    -0.768000000     0.953000000     4.772000000
H    -2.164000000     0.911000000     5.355000000
O     2.819000000    -5.883000000    -0.026000000
H     2.885000000    -4.931000000     0.041000000
H     2.841000000    -6.060000000    -0.966000000
O    -3.673000000    -4.304000000     1.610000000
H    -3.194000000    -3.519000000     1.344000000
H    -4.595000000    -4.060000000     1.533000000
O     4.657000000     0.088000000     1.081000000
H     4.814000000     0.963000000     0.726000000
H     4.430000000     0.239000000     1.999000000
O    -1.333000000    -4.911000000    -0.327000000
H    -0.615000000    -5.203000000     0.236000000
H    -2.050000000    -4.721000000     0.279000000
O    -0.687000000     4.613000000     2.338000000
H    -0.668000000     4.225000000     3.212000000
H     0.226000000     4.836000000     2.155000000
O     0.354000000    -2.385000000    -4.826000000
H     0.126000000    -2.888000000    -5.608000000
H    -0.289000000    -2.656000000    -4.171000000
O     1.679000000     4.538000000    -3.155000000
H     1.639000000     4.861000000    -2.255000000
H     2.543000000     4.133000000    -3.227000000
O    -2.744000000     0.267000000     7.901000000
H    -2.848000000     0.837000000     8.664000000
H    -1.900000000     0.519000000     7.528000000
O    -3.462000000    -0.182000000     4.666000000
H    -3.947000000    -0.264000000     3.844000000
H    -4.119000000    -0.325000000     5.347000000
O     1.038000000     3.850000000    -5.643000000
H     1.247000000     4.438000000    -4.917000000
H     1.803000000     3.895000000    -6.216000000
O     5.477000000     2.860000000     2.700000000
H     4.621000000     2.808000000     3.126000000
H     5.551000000     3.772000000     2.421000000
O     2.891000000     3.398000000     6.115000000
H     3.683000000     3.548000000     5.598000000
H     2.998000000     2.513000000     6.465000000
O    -3.607000000     2.888000000     0.187000000
H    -3.005000000     3.344000000    -0.400000000
H    -4.267000000     3.544000000     0.411000000
O     3.598000000    -1.109000000     7.981000000
H     3.206000000    -0.350000000     8.412000000
H     3.190000000    -1.131000000     7.115000000
