144
-2821.85368
O     4.343000000     5.120000000     0.393000000
H     3.619000000     4.673000000     0.831000000
H     4.498000000     5.902000000     0.923000000
O    -2.013000000    -1.171000000    -6.978000000
H    -2.226000000    -0.398000000    -7.501000000
H    -1.059000000    -1.235000000    -7.023000000
O    -0.447000000    -1.512000000     5.591000000
H    -0.781000000    -0.761000000     6.082000000
H    -0.175000000    -1.147000000     4.749000000
O    -3.152000000    -4.113000000     0.599000000
H    -2.914000000    -4.750000000     1.272000000
H    -2.622000000    -4.355000000    -0.160000000
O     5.774000000     2.995000000     1.351000000
H     5.381000000     3.784000000     0.979000000
H     5.123000000     2.673000000     1.974000000
O    -3.923000000    -0.743000000     3.168000000
H    -3.887000000    -1.645000000     3.484000000
H    -3.753000000    -0.811000000     2.228000000
O     0.569000000    -0.607000000     8.490000000
H     1.066000000    -1.029000000     7.789000000
H    -0.325000000    -0.555000000     8.152000000
O     2.090000000     3.791000000     1.698000000
H     1.786000000     2.995000000     2.133000000
H     1.516000000     4.480000000     2.032000000
O     5.231000000     4.191000000     5.903000000
H     4.322000000     3.963000000     5.707000000
H     5.509000000     3.538000000     6.545000000
O     4.183000000     1.065000000     3.104000000
H     4.139000000     1.212000000     4.049000000
H     3.284000000     1.185000000     2.801000000
O     3.288000000    -0.146000000    -5.821000000
H     2.622000000     0.047000000    -6.481000000
H     4.064000000    -0.387000000    -6.327000000
O     0.769000000     1.547000000     5.980000000
H     0.733000000     1.148000000     5.110000000
H     0.059000000     1.126000000     6.465000000
O     2.893000000     3.131000000     4.939000000
H     2.630000000     2.669000000     4.144000000
H     2.339000000     2.760000000     5.626000000
O    -2.422000000     1.125000000     4.395000000
H    -2.924000000     0.370000000     4.085000000
H    -1.551000000     1.005000000     4.017000000
O    -0.220000000     3.743000000     3.457000000
H    -0.008000000     2.865000000     3.772000000
H     0.020000000     4.322000000     4.181000000
O    -3.519000000    -3.505000000     4.348000000
H    -2.642000000    -3.815000000     4.122000000
H    -3.724000000    -3.947000000     5.172000000
O     0.245000000     4.615000000     6.227000000
H     0.713000000     3.781000000     6.255000000
H     0.833000000     5.234000000     6.659000000
O    -3.949000000     0.761000000    -1.209000000
H    -4.110000000     0.052000000    -0.586000000
H    -3.037000000     1.009000000    -1.060000000
O    -2.424000000    -6.072000000     2.406000000
H    -1.900000000    -5.365000000     2.783000000
H    -2.605000000    -6.655000000     3.143000000
O    -1.622000000     0.596000000     7.041000000
H    -2.194000000     0.817000000     6.305000000
H    -2.163000000     0.741000000     7.817000000
O     2.973000000    -2.978000000    -1.042000000
H     2.743000000    -2.237000000    -1.603000000
H     2.763000000    -2.683000000    -0.156000000
O    -1.136000000    -4.463000000    -1.758000000
H    -0.468000000    -4.821000000    -2.343000000
H    -0.734000000    -4.493000000    -0.889000000
O    -0.200000000    -3.996000000     6.733000000
H     0.676000000    -3.873000000     7.099000000
H    -0.483000000    -3.115000000     6.488000000
O    -3.425000000     1.733000000    -5.278000000
H    -3.820000000     2.034000000    -6.096000000
H    -4.074000000     1.138000000    -4.903000000
O     4.370000000    -0.403000000    -2.090000000
H     4.005000000     0.467000000    -1.930000000
H     3.738000000    -0.824000000    -2.673000000
O    -3.220000000     3.178000000     2.000000000
H    -2.896000000     2.629000000     1.286000000
H    -2.972000000     2.706000000     2.796000000
O     2.734000000    -1.654000000    -3.687000000
H     2.958000000    -1.107000000    -4.439000000
H     2.265000000    -2.399000000    -4.063000000
O    -4.451000000     3.670000000    -2.650000000
H    -4.482000000     3.915000000    -1.725000000
H    -4.237000000     2.738000000    -2.644000000
O    -0.527000000     3.934000000    -1.684000000
H    -0.778000000     4.462000000    -0.926000000
H     0.248000000     4.372000000    -2.036000000
O     4.543000000    -1.036000000     1.165000000
H     4.603000000    -0.466000000     0.398000000
H     4.559000000    -0.436000000     1.911000000
O    -3.863000000    -4.350000000    -3.031000000
H    -3.023000000    -4.412000000    -2.577000000
H    -3.712000000    -3.711000000    -3.728000000
O    -2.119000000     4.323000000    -4.175000000
H    -1.714000000     4.275000000    -3.309000000
H    -2.810000000     3.661000000    -4.154000000
O     1.668000000    -3.379000000     4.346000000
H     2.554000000    -3.597000000     4.634000000
H     1.370000000    -2.716000000     4.968000000
O    -0.522000000    -3.566000000    -5.727000000
H     0.277000000    -3.547000000    -5.201000000
H    -1.175000000    -3.121000000    -5.186000000
O     1.766000000     5.106000000    -2.762000000
H     0.953000000     5.584000000    -2.925000000
H     2.443000000     5.782000000    -2.746000000
O     2.504000000     4.326000000    -5.286000000
H     1.997000000     3.514000000    -5.251000000
H     2.557000000     4.614000000    -4.374000000
O     2.270000000    -3.004000000    -5.998000000
H     1.440000000    -2.694000000    -6.361000000
H     2.434000000    -3.832000000    -6.449000000
O     1.758000000     1.759000000    -4.615000000
H     2.283000000     0.959000000    -4.634000000
H     0.910000000     1.498000000    -4.974000000
O    -4.324000000    -1.563000000     0.419000000
H    -3.906000000    -2.422000000     0.481000000
H    -5.232000000    -1.754000000     0.186000000
O     4.013000000     2.429000000    -2.622000000
H     3.161000000     2.312000000    -3.043000000
H     3.924000000     3.239000000    -2.121000000
O     0.127000000    -4.621000000     0.808000000
H     0.200000000    -5.494000000     1.195000000
H     1.018000000    -4.274000000     0.831000000
O    -1.821000000     2.229000000     0.046000000
H    -1.349000000     2.746000000    -0.606000000
H    -1.200000000     1.549000000     0.308000000
O    -4.104000000     2.899000000     5.689000000
H    -3.552000000     3.644000000     5.923000000
H    -3.542000000     2.344000000     5.149000000
O     1.423000000    -4.634000000    -2.628000000
H     2.189000000    -5.125000000    -2.925000000
H     1.767000000    -4.030000000    -1.969000000
O     2.183000000    -2.622000000     1.596000000
H     2.965000000    -2.075000000     1.529000000
H     1.964000000    -2.614000000     2.528000000
O    -0.793000000     1.750000000    -5.870000000
H    -0.812000000     2.658000000    -6.173000000
H    -1.609000000     1.643000000    -5.381000000
O    -3.218000000    -2.612000000    -4.952000000
H    -4.083000000    -2.203000000    -4.992000000
H    -2.711000000    -2.167000000    -5.632000000
O    -1.184000000    -3.904000000     2.945000000
H    -0.395000000    -4.081000000     3.458000000
H    -0.877000000    -3.864000000     2.040000000
