144
-2794.17329
O    -1.633000000    -0.751000000     4.301000000
H    -0.794000000    -1.198000000     4.190000000
H    -1.583000000     0.002000000     3.712000000
O     2.396000000    -2.557000000    -6.503000000
H     1.686000000    -2.307000000    -5.912000000
H     3.172000000    -2.589000000    -5.944000000
O     0.460000000     4.180000000    -1.327000000
H    -0.054000000     4.619000000    -0.649000000
H     0.041000000     3.326000000    -1.430000000
O    -1.427000000    -5.501000000    -1.941000000
H    -1.651000000    -4.723000000    -2.451000000
H    -1.671000000    -5.276000000    -1.042000000
O     1.472000000    -5.097000000     0.894000000
H     2.350000000    -4.801000000     0.656000000
H     1.209000000    -5.670000000     0.173000000
O    -1.271000000     3.362000000     5.626000000
H    -0.771000000     3.585000000     4.841000000
H    -2.183000000     3.352000000     5.335000000
O    -3.787000000    -0.807000000    -2.780000000
H    -3.189000000    -0.139000000    -3.115000000
H    -4.226000000    -0.387000000    -2.041000000
O     3.444000000     3.357000000     4.325000000
H     3.542000000     3.871000000     5.126000000
H     2.797000000     2.688000000     4.547000000
O     0.999000000     7.037000000     5.638000000
H     0.480000000     6.284000000     5.355000000
H     1.861000000     6.894000000     5.248000000
O    -2.427000000     4.540000000    -0.921000000
H    -2.716000000     5.068000000    -1.665000000
H    -1.902000000     3.842000000    -1.312000000
O     1.228000000    -1.497000000     4.429000000
H     1.294000000    -1.807000000     3.525000000
H     1.759000000    -2.114000000     4.933000000
O    -4.140000000    -1.176000000     4.274000000
H    -4.336000000    -1.637000000     3.458000000
H    -3.187000000    -1.080000000     4.271000000
O    -4.353000000     2.876000000     7.273000000
H    -3.874000000     2.611000000     6.488000000
H    -5.236000000     3.071000000     6.960000000
O    -3.540000000     2.574000000     4.367000000
H    -4.348000000     2.331000000     3.915000000
H    -2.849000000     2.122000000     3.882000000
O    -0.315000000     4.113000000    -4.075000000
H    -0.649000000     4.887000000    -4.529000000
H    -0.422000000     4.317000000    -3.145000000
O    -2.438000000    -1.414000000    -5.990000000
H    -2.087000000    -1.081000000    -6.817000000
H    -3.072000000    -2.082000000    -6.251000000
O    -1.225000000     2.198000000     8.181000000
H    -1.288000000     2.624000000     7.326000000
H    -1.646000000     2.809000000     8.786000000
O     5.351000000     0.273000000    -2.461000000
H     5.554000000     1.163000000    -2.748000000
H     4.657000000    -0.017000000    -3.053000000
O     1.046000000     1.521000000    -3.862000000
H     0.468000000     2.072000000    -4.391000000
H     0.598000000     1.444000000    -3.020000000
O    -2.424000000     0.855000000    -3.997000000
H    -2.219000000     0.406000000    -4.817000000
H    -3.273000000     1.268000000    -4.155000000
O     3.965000000    -4.114000000     0.100000000
H     4.429000000    -4.755000000    -0.438000000
H     4.565000000    -3.369000000     0.154000000
O    -2.987000000    -0.168000000     6.860000000
H    -2.750000000     0.487000000     6.204000000
H    -3.373000000    -0.884000000     6.355000000
O    -0.846000000     7.450000000     2.804000000
H    -0.647000000     7.106000000     1.933000000
H    -1.351000000     6.755000000     3.226000000
O    -1.376000000     2.159000000    -1.643000000
H    -1.999000000     1.769000000    -2.257000000
H    -1.174000000     1.454000000    -1.027000000
O    -2.707000000    -3.342000000    -3.378000000
H    -2.961000000    -2.477000000    -3.057000000
H    -3.436000000    -3.615000000    -3.935000000
O    -2.136000000     4.938000000     3.083000000
H    -1.355000000     4.478000000     2.774000000
H    -2.829000000     4.659000000     2.485000000
O     3.859000000    -0.012000000    -4.689000000
H     3.186000000    -0.094000000    -5.364000000
H     3.652000000     0.809000000    -4.242000000
O     0.488000000    -1.072000000    -5.092000000
H     0.836000000    -0.404000000    -4.502000000
H     0.194000000    -0.583000000    -5.861000000
O     3.068000000     6.799000000     3.716000000
H     3.960000000     6.717000000     4.055000000
H     2.973000000     6.061000000     3.114000000
O     2.796000000     3.663000000    -4.234000000
H     2.334000000     4.501000000    -4.242000000
H     2.112000000     3.014000000    -4.068000000
O     1.398000000    -2.406000000     1.805000000
H     1.427000000    -3.269000000     1.392000000
H     0.625000000    -1.985000000     1.427000000
O     3.861000000     5.790000000     0.541000000
H     3.194000000     5.314000000     1.037000000
H     3.458000000     5.944000000    -0.313000000
O     3.849000000    -0.573000000     1.767000000
H     4.270000000    -1.104000000     1.091000000
H     2.945000000    -0.888000000     1.791000000
O    -0.506000000    -3.633000000    -5.045000000
H    -0.321000000    -2.717000000    -4.836000000
H    -1.314000000    -3.828000000    -4.571000000
O    -5.169000000     0.520000000    -0.977000000
H    -5.299000000     0.641000000    -0.036000000
H    -5.159000000     1.409000000    -1.333000000
O     1.933000000     4.663000000     2.308000000
H     1.160000000     4.121000000     2.150000000
H     2.391000000     4.225000000     3.025000000
O     1.280000000    -6.425000000    -2.198000000
H     0.356000000    -6.201000000    -2.088000000
H     1.456000000    -6.268000000    -3.125000000
O    -0.509000000     6.311000000     0.173000000
H    -1.350000000     6.448000000    -0.262000000
H    -0.090000000     7.171000000     0.160000000
O     1.352000000    -5.879000000    -4.830000000
H     2.119000000    -5.882000000    -5.402000000
H     0.854000000    -5.108000000    -5.101000000
O     2.353000000     6.096000000    -1.639000000
H     2.137000000     6.519000000    -2.470000000
H     1.617000000     5.508000000    -1.471000000
O     1.428000000     1.332000000     4.534000000
H     0.695000000     1.582000000     3.971000000
H     1.477000000     0.379000000     4.456000000
O    -5.690000000    -1.299000000     1.774000000
H    -6.615000000    -1.116000000     1.936000000
H    -5.236000000    -0.506000000     2.058000000
O     5.176000000     2.878000000    -3.224000000
H     4.267000000     3.153000000    -3.346000000
H     5.601000000     3.632000000    -2.816000000
O     4.768000000     2.209000000     1.919000000
H     4.243000000     2.779000000     2.481000000
H     4.377000000     1.342000000     2.026000000
O    -4.356000000     1.217000000     1.903000000
H    -3.463000000     1.441000000     2.164000000
H    -4.861000000     2.012000000     2.072000000
O    -3.904000000    -3.039000000     0.490000000
H    -4.235000000    -3.235000000     1.367000000
H    -4.662000000    -2.691000000     0.020000000
O    -0.590000000    -4.526000000     2.657000000
H     0.243000000    -4.777000000     2.258000000
H    -0.394000000    -4.449000000     3.591000000
O    -2.341000000    -5.157000000     0.605000000
H    -1.758000000    -4.834000000     1.291000000
H    -2.914000000    -4.415000000     0.410000000
