144
-2811.52062
O    -0.757000000     0.029000000     6.447000000
H    -1.337000000    -0.551000000     5.954000000
H    -0.885000000    -0.224000000     7.361000000
O     4.207000000     5.684000000     5.420000000
H     4.747000000     6.130000000     4.767000000
H     3.374000000     5.526000000     4.974000000
O     3.007000000     3.620000000     7.007000000
H     3.291000000     4.355000000     6.464000000
H     2.602000000     3.009000000     6.391000000
O     1.897000000    -4.857000000     1.096000000
H     1.172000000    -4.531000000     1.630000000
H     2.506000000    -4.120000000     1.044000000
O    -0.914000000     0.986000000    -4.486000000
H    -1.200000000     1.141000000    -5.386000000
H    -1.626000000     1.331000000    -3.946000000
O     0.862000000    -1.606000000     4.028000000
H     1.596000000    -1.748000000     4.625000000
H     1.006000000    -0.727000000     3.676000000
O     4.039000000     2.429000000     3.595000000
H     4.074000000     3.091000000     2.904000000
H     3.185000000     2.012000000     3.484000000
O     0.741000000    -5.204000000    -3.300000000
H     1.357000000    -5.937000000    -3.304000000
H     0.945000000    -4.716000000    -4.098000000
O    -5.400000000     3.312000000    -1.612000000
H    -4.797000000     4.055000000    -1.607000000
H    -6.235000000     3.680000000    -1.320000000
O    -4.298000000    -1.100000000    -4.548000000
H    -4.378000000    -0.482000000    -3.822000000
H    -3.862000000    -0.603000000    -5.240000000
O     4.762000000    -0.736000000     6.293000000
H     3.815000000    -0.698000000     6.157000000
H     5.020000000     0.174000000     6.438000000
O     4.279000000     4.790000000     1.827000000
H     3.866000000     5.641000000     1.977000000
H     4.066000000     4.578000000     0.918000000
O     1.550000000     1.501000000     5.580000000
H     1.540000000     1.387000000     4.629000000
H     0.736000000     1.095000000     5.879000000
O     1.477000000     7.064000000     0.090000000
H     2.080000000     7.146000000     0.828000000
H     1.320000000     6.123000000     0.012000000
O    -3.142000000     2.983000000     1.882000000
H    -3.792000000     3.188000000     1.210000000
H    -2.462000000     3.646000000     1.767000000
O    -3.122000000    -4.470000000    -0.715000000
H    -3.802000000    -5.025000000    -1.098000000
H    -3.444000000    -3.577000000    -0.839000000
O     1.756000000     4.480000000     4.237000000
H     1.098000000     5.064000000     3.859000000
H     1.736000000     3.703000000     3.679000000
O    -1.430000000     4.397000000    -2.213000000
H    -1.385000000     4.768000000    -1.331000000
H    -0.665000000     4.756000000    -2.662000000
O     3.911000000    -3.302000000     1.483000000
H     4.242000000    -4.042000000     1.993000000
H     4.316000000    -2.534000000     1.886000000
O    -1.048000000    -6.212000000    -1.516000000
H    -1.565000000    -5.524000000    -1.097000000
H    -0.412000000    -5.740000000    -2.053000000
O     0.880000000    -2.965000000    -5.398000000
H     1.643000000    -2.740000000    -4.867000000
H     0.635000000    -2.144000000    -5.825000000
O    -4.358000000     0.426000000     1.200000000
H    -3.797000000    -0.123000000     1.748000000
H    -4.134000000     1.322000000     1.451000000
O    -3.070000000    -6.187000000    -4.256000000
H    -2.405000000    -6.313000000    -3.579000000
H    -2.996000000    -5.262000000    -4.494000000
O     0.072000000    -3.939000000     3.131000000
H    -0.762000000    -3.884000000     2.664000000
H     0.328000000    -3.027000000     3.271000000
O     0.419000000     6.792000000     3.041000000
H    -0.042000000     7.513000000     2.612000000
H     1.287000000     6.790000000     2.637000000
O     3.042000000    -5.613000000    -1.276000000
H     2.473000000    -5.282000000    -0.581000000
H     3.876000000    -5.789000000    -0.839000000
O    -2.407000000    -3.736000000     1.856000000
H    -3.087000000    -3.833000000     2.523000000
H    -2.745000000    -4.213000000     1.098000000
O     1.485000000     0.746000000    -3.329000000
H     0.618000000     0.985000000    -3.657000000
H     1.597000000    -0.168000000    -3.592000000
O    -3.058000000     2.288000000    -3.246000000
H    -2.678000000     3.163000000    -3.171000000
H    -3.985000000     2.412000000    -3.041000000
O    -6.156000000    -3.561000000    -4.304000000
H    -6.299000000    -3.350000000    -5.227000000
H    -5.560000000    -2.880000000    -3.992000000
O     0.118000000    -5.205000000    -6.617000000
H     0.389000000    -4.352000000    -6.278000000
H    -0.679000000    -5.415000000    -6.130000000
O    -4.317000000     5.966000000    -0.064000000
H    -4.334000000     6.728000000     0.514000000
H    -3.516000000     5.500000000     0.177000000
O     3.676000000    -4.512000000    -3.664000000
H     3.219000000    -4.859000000    -2.898000000
H     3.548000000    -3.564000000    -3.610000000
O     1.163000000     4.378000000     0.323000000
H     1.233000000     3.864000000     1.127000000
H     1.936000000     4.133000000    -0.186000000
O     3.605000000    -0.865000000    -1.714000000
H     2.971000000    -1.196000000    -1.079000000
H     3.572000000     0.086000000    -1.613000000
O     6.835000000     2.253000000     4.041000000
H     6.926000000     2.289000000     4.993000000
H     5.891000000     2.297000000     3.889000000
O    -5.240000000     0.597000000    -1.446000000
H    -5.229000000     1.542000000    -1.598000000
H    -4.920000000     0.494000000    -0.550000000
O    -4.317000000    -2.193000000    -0.793000000
H    -4.078000000    -1.270000000    -0.714000000
H    -5.275000000    -2.194000000    -0.790000000
O    -1.134000000     3.003000000     6.878000000
H    -0.355000000     2.462000000     7.003000000
H    -1.268000000     3.015000000     5.930000000
O     2.982000000    -1.900000000    -4.123000000
H     3.148000000    -1.514000000    -3.263000000
H     3.594000000    -1.452000000    -4.708000000
O     4.764000000     0.852000000     0.530000000
H     5.430000000     0.271000000     0.163000000
H     4.496000000     0.425000000     1.344000000
O    -3.311000000    -3.613000000    -5.132000000
H    -3.520000000    -2.825000000    -4.630000000
H    -3.253000000    -3.310000000    -6.039000000
O    -1.370000000     3.114000000     3.959000000
H    -0.605000000     2.930000000     3.414000000
H    -2.098000000     2.693000000     3.501000000
O    -1.866000000     5.750000000     4.601000000
H    -1.287000000     6.082000000     3.914000000
H    -1.871000000     4.802000000     4.474000000
O     3.437000000     3.158000000    -0.542000000
H     3.909000000     3.412000000    -1.335000000
H     3.812000000     2.311000000    -0.301000000
O    -1.672000000     5.111000000     0.776000000
H    -1.696000000     6.032000000     1.035000000
H    -0.740000000     4.894000000     0.748000000
O     4.228000000    -0.402000000     2.927000000
H     4.777000000    -0.073000000     3.639000000
H     3.357000000    -0.052000000     3.116000000
O    -1.902000000    -0.927000000     2.157000000
H    -2.165000000    -1.837000000     2.019000000
H    -1.052000000    -0.856000000     1.723000000
