144
-2824.94905
O     4.245000000     1.877000000     0.815000000
H     4.281000000     2.325000000    -0.030000000
H     3.661000000     2.417000000     1.348000000
O    -0.540000000     4.144000000     4.041000000
H    -0.999000000     3.862000000     3.249000000
H     0.024000000     3.404000000     4.267000000
O    -5.127000000     7.120000000     2.910000000
H    -5.873000000     6.749000000     3.380000000
H    -4.611000000     6.360000000     2.640000000
O    -2.396000000    -4.035000000    -1.822000000
H    -2.399000000    -3.502000000    -1.027000000
H    -3.293000000    -3.981000000    -2.150000000
O    -2.479000000     2.664000000    -2.492000000
H    -2.774000000     2.633000000    -1.582000000
H    -3.187000000     2.252000000    -2.988000000
O     0.982000000     1.925000000     3.921000000
H     0.707000000     1.089000000     3.543000000
H     1.028000000     1.757000000     4.862000000
O     1.817000000    -1.316000000     3.677000000
H     0.968000000    -1.737000000     3.811000000
H     2.351000000    -1.985000000     3.248000000
O     4.978000000    -0.196000000    -0.945000000
H     4.859000000    -1.099000000    -0.651000000
H     4.665000000     0.337000000    -0.215000000
O     5.125000000    -2.658000000     0.638000000
H     5.186000000    -1.995000000     1.326000000
H     5.994000000    -3.059000000     0.615000000
O    -7.403000000     2.128000000    -1.869000000
H    -6.817000000     2.769000000    -1.466000000
H    -7.402000000     1.389000000    -1.261000000
O    -4.624000000     6.305000000    -1.732000000
H    -4.648000000     7.227000000    -1.474000000
H    -3.695000000     6.118000000    -1.867000000
O     0.591000000     3.119000000    -3.760000000
H    -0.200000000     2.626000000    -3.540000000
H     1.261000000     2.771000000    -3.172000000
O     2.959000000    -3.541000000     2.209000000
H     2.557000000    -4.240000000     1.692000000
H     3.652000000    -3.196000000     1.648000000
O     2.951000000    -4.745000000    -3.090000000
H     3.555000000    -5.009000000    -2.396000000
H     2.301000000    -5.447000000    -3.121000000
O    -3.641000000     5.208000000     1.449000000
H    -3.454000000     5.694000000     0.645000000
H    -3.345000000     4.317000000     1.263000000
O     5.543000000    -0.907000000     2.617000000
H     6.385000000    -0.541000000     2.888000000
H     4.894000000    -0.413000000     3.118000000
O    -0.559000000    -2.546000000     4.365000000
H    -0.810000000    -1.993000000     5.106000000
H    -0.051000000    -3.256000000     4.757000000
O    -0.154000000     6.840000000     4.448000000
H    -0.987000000     6.860000000     4.920000000
H     0.051000000     5.909000000     4.364000000
O     2.166000000     3.894000000     2.487000000
H     1.572000000     3.261000000     2.891000000
H     2.327000000     4.542000000     3.173000000
O     1.767000000    -2.876000000    -6.337000000
H     2.005000000    -2.392000000    -7.127000000
H     0.890000000    -3.213000000    -6.517000000
O    -2.381000000    -1.076000000     2.712000000
H    -2.557000000    -1.173000000     3.648000000
H    -1.514000000    -1.463000000     2.590000000
O     7.490000000     1.043000000    -0.115000000
H     7.658000000     0.655000000     0.743000000
H     6.769000000     0.526000000    -0.475000000
O     5.181000000     0.081000000    -3.780000000
H     4.818000000    -0.198000000    -2.939000000
H     4.433000000     0.075000000    -4.378000000
O     2.346000000     1.054000000    -2.797000000
H     2.277000000     0.679000000    -3.675000000
H     1.887000000     0.431000000    -2.234000000
O    -2.119000000     5.420000000    -1.278000000
H    -1.256000000     5.676000000    -0.953000000
H    -1.940000000     4.714000000    -1.900000000
O     1.823000000    -5.382000000     0.375000000
H     1.003000000    -5.101000000     0.780000000
H     1.623000000    -6.240000000     0.000000000
O    -0.345000000    -6.048000000    -2.907000000
H    -0.402000000    -6.091000000    -1.953000000
H    -1.009000000    -5.407000000    -3.159000000
O     2.615000000    -0.293000000    -5.180000000
H     2.563000000    -1.236000000    -5.332000000
H     1.917000000     0.076000000    -5.721000000
O    -3.369000000     3.140000000     3.761000000
H    -4.169000000     3.410000000     3.312000000
H    -2.668000000     3.330000000     3.138000000
O    -2.902000000    -2.631000000     0.502000000
H    -2.820000000    -2.118000000     1.306000000
H    -3.845000000    -2.747000000     0.387000000
O     4.671000000    -4.029000000    -5.079000000
H     4.068000000    -4.095000000    -4.338000000
H     4.130000000    -3.711000000    -5.801000000
O    -4.355000000     0.446000000     1.167000000
H    -3.703000000    -0.124000000     1.575000000
H    -3.896000000     1.274000000     1.027000000
O    -2.000000000    -0.745000000    -6.133000000
H    -1.804000000     0.100000000    -6.539000000
H    -2.944000000    -0.720000000    -5.973000000
O    -2.666000000     3.762000000     6.475000000
H    -2.177000000     4.584000000     6.441000000
H    -2.665000000     3.445000000     5.571000000
O     0.261000000     4.902000000     0.503000000
H    -0.382000000     4.462000000     1.059000000
H     1.059000000     4.382000000     0.603000000
O    -5.139000000    -3.688000000    -3.041000000
H    -5.272000000    -2.740000000    -3.059000000
H    -4.752000000    -3.892000000    -3.892000000
O    -6.790000000     0.794000000     3.419000000
H    -5.969000000     0.605000000     2.965000000
H    -6.521000000     1.182000000     4.251000000
O     4.499000000     2.767000000    -1.771000000
H     4.065000000     3.431000000    -2.306000000
H     4.130000000     1.937000000    -2.074000000
O    -5.193000000    -0.481000000    -2.716000000
H    -5.088000000     0.290000000    -3.273000000
H    -5.627000000    -0.150000000    -1.929000000
O    -5.191000000     3.466000000    -0.691000000
H    -4.426000000     3.049000000    -0.293000000
H    -4.980000000     4.400000000    -0.692000000
O    -3.443000000     0.881000000     5.378000000
H    -3.659000000     1.414000000     6.144000000
H    -3.461000000     1.496000000     4.645000000
O    -6.617000000     0.026000000    -0.298000000
H    -6.039000000     0.316000000     0.408000000
H    -7.062000000    -0.743000000     0.058000000
O    -5.030000000     2.297000000    -4.011000000
H    -4.819000000     3.230000000    -3.973000000
H    -5.954000000     2.270000000    -4.260000000
O     3.768000000     0.534000000     4.050000000
H     3.288000000     1.118000000     3.463000000
H     3.178000000    -0.207000000     4.185000000
O     4.348000000    -4.872000000    -0.820000000
H     4.441000000    -4.002000000    -0.432000000
H     3.485000000    -5.171000000    -0.532000000
O    -0.077000000     7.268000000    -0.461000000
H     0.256000000     6.463000000    -0.063000000
H    -0.873000000     7.468000000     0.031000000
O    -0.810000000    -4.072000000     1.420000000
H    -1.494000000    -3.568000000     0.980000000
H    -0.724000000    -3.661000000     2.280000000
O    -1.960000000    -6.441000000     2.017000000
H    -1.457000000    -5.640000000     1.871000000
H    -2.626000000    -6.192000000     2.658000000
