144
-2788.04654
O     6.680000000    -2.890000000     3.207000000
H     6.340000000    -3.729000000     2.895000000
H     5.964000000    -2.273000000     3.060000000
O     0.361000000     4.339000000     2.659000000
H    -0.311000000     4.099000000     2.021000000
H     1.165000000     3.947000000     2.318000000
O    -1.328000000     5.771000000     4.082000000
H    -2.038000000     5.612000000     3.460000000
H    -0.529000000     5.661000000     3.567000000
O    -3.495000000    -2.969000000    -3.602000000
H    -3.620000000    -2.023000000    -3.520000000
H    -3.167000000    -3.243000000    -2.745000000
O    -3.455000000     2.883000000    -2.456000000
H    -3.206000000     2.886000000    -1.531000000
H    -2.920000000     3.572000000    -2.849000000
O     6.400000000    -0.616000000    -1.215000000
H     6.875000000     0.204000000    -1.349000000
H     5.993000000    -0.799000000    -2.062000000
O     0.774000000     0.410000000     6.202000000
H     1.359000000     1.149000000     6.035000000
H    -0.106000000     0.781000000     6.134000000
O     2.489000000    -2.119000000     5.425000000
H     1.633000000    -2.048000000     5.849000000
H     3.018000000    -1.437000000     5.838000000
O     3.356000000     0.394000000    -0.517000000
H     2.848000000     0.319000000    -1.325000000
H     2.697000000     0.424000000     0.178000000
O     1.314000000    -4.454000000    -3.922000000
H     2.168000000    -4.878000000    -4.012000000
H     0.866000000    -4.960000000    -3.244000000
O    -3.599000000    -1.738000000     3.539000000
H    -4.223000000    -2.403000000     3.829000000
H    -3.390000000    -1.244000000     4.331000000
O     4.960000000    -4.653000000     1.323000000
H     4.366000000    -4.251000000     1.957000000
H     5.095000000    -5.542000000     1.653000000
O     4.468000000     2.936000000    -0.866000000
H     3.663000000     3.453000000    -0.913000000
H     4.167000000     2.033000000    -0.765000000
O     2.142000000    -5.459000000     3.369000000
H     2.413000000    -4.554000000     3.215000000
H     1.186000000    -5.434000000     3.320000000
O     4.255000000    -4.445000000    -4.157000000
H     4.235000000    -4.451000000    -3.200000000
H     4.520000000    -3.554000000    -4.385000000
O    -4.634000000     3.359000000     3.206000000
H    -3.994000000     4.022000000     2.946000000
H    -4.560000000     2.679000000     2.536000000
O     4.948000000    -1.152000000     1.174000000
H     4.512000000    -0.423000000     0.733000000
H     5.630000000    -1.429000000     0.562000000
O     3.455000000    -7.057000000    -1.416000000
H     2.511000000    -7.032000000    -1.573000000
H     3.832000000    -7.302000000    -2.261000000
O     2.930000000     3.734000000     1.873000000
H     3.396000000     3.880000000     1.050000000
H     3.458000000     3.084000000     2.336000000
O    -5.275000000     2.387000000    -4.804000000
H    -4.776000000     3.122000000    -4.447000000
H    -5.707000000     1.999000000    -4.043000000
O     1.210000000    -2.358000000    -5.550000000
H     1.285000000    -2.918000000    -4.777000000
H     0.363000000    -1.925000000    -5.450000000
O    -4.803000000     1.257000000     1.468000000
H    -4.146000000     1.498000000     0.815000000
H    -4.710000000     0.308000000     1.561000000
O    -0.142000000     1.115000000    -4.633000000
H    -0.718000000     0.438000000    -4.988000000
H    -0.015000000     1.726000000    -5.358000000
O    -3.097000000     5.306000000     2.001000000
H    -2.584000000     4.656000000     1.520000000
H    -3.815000000     5.530000000     1.409000000
O     0.825000000    -6.571000000    -2.013000000
H     0.464000000    -6.073000000    -1.281000000
H     0.386000000    -7.420000000    -1.965000000
O    -0.874000000    -4.493000000    -1.067000000
H    -1.571000000    -5.148000000    -1.103000000
H    -1.252000000    -3.768000000    -0.568000000
O     2.657000000     0.166000000    -5.167000000
H     1.900000000     0.647000000    -4.831000000
H     2.284000000    -0.619000000    -5.566000000
O    -1.074000000     7.817000000     0.774000000
H    -1.879000000     7.987000000     1.263000000
H    -1.142000000     8.376000000    -0.001000000
O     3.656000000    -3.031000000     3.046000000
H     3.167000000    -2.705000000     3.802000000
H     3.761000000    -2.267000000     2.481000000
O     1.621000000     3.028000000     5.275000000
H     1.055000000     3.507000000     5.881000000
H     1.672000000     3.589000000     4.502000000
O    -3.170000000    -2.296000000    -0.774000000
H    -3.395000000    -1.594000000    -1.385000000
H    -3.705000000    -2.122000000     0.000000000
O     1.773000000    -7.513000000     1.370000000
H     2.162000000    -7.284000000     0.525000000
H     2.119000000    -6.860000000     1.978000000
O    -5.848000000     1.892000000    -1.988000000
H    -6.181000000     2.433000000    -1.272000000
H    -4.998000000     2.275000000    -2.202000000
O     0.958000000     3.796000000    -0.454000000
H     0.253000000     3.424000000     0.076000000
H     0.881000000     4.741000000    -0.327000000
O    -6.931000000     0.673000000     3.102000000
H    -6.265000000     0.808000000     2.428000000
H    -6.809000000    -0.235000000     3.380000000
O     1.721000000     2.017000000    -2.364000000
H     0.973000000     1.537000000    -2.719000000
H     1.345000000     2.586000000    -1.692000000
O    -3.257000000    -0.113000000    -3.440000000
H    -3.509000000    -0.158000000    -4.362000000
H    -3.051000000     0.810000000    -3.293000000
O    -1.227000000    -1.195000000    -5.772000000
H    -1.333000000    -2.088000000    -6.098000000
H    -2.114000000    -0.835000000    -5.763000000
O    -5.965000000     5.170000000    -1.694000000
H    -6.224000000     6.083000000    -1.565000000
H    -5.012000000     5.200000000    -1.768000000
O     4.616000000     1.550000000     3.303000000
H     4.401000000     0.653000000     3.559000000
H     5.485000000     1.484000000     2.907000000
O    -1.564000000     1.669000000     6.351000000
H    -2.514000000     1.563000000     6.410000000
H    -1.423000000     2.612000000     6.438000000
O    -2.205000000    -3.134000000     1.601000000
H    -2.450000000    -2.534000000     2.306000000
H    -2.208000000    -2.591000000     0.813000000
O    -2.003000000     5.161000000    -3.963000000
H    -2.790000000     5.657000000    -4.187000000
H    -1.475000000     5.768000000    -3.445000000
O     4.597000000    -4.869000000    -1.395000000
H     4.804000000    -4.480000000    -0.545000000
H     4.196000000    -5.711000000    -1.182000000
O     1.510000000     7.147000000    -0.579000000
H     1.176000000     7.021000000    -1.467000000
H     0.731000000     7.115000000    -0.024000000
O     2.084000000     6.689000000     3.200000000
H     2.965000000     6.409000000     2.951000000
H     1.526000000     5.940000000     2.990000000
O    -0.637000000    -4.942000000     3.145000000
H    -0.955000000    -4.182000000     2.657000000
H    -1.171000000    -4.957000000     3.939000000
O    -1.584000000    -7.554000000     1.772000000
H    -0.870000000    -7.009000000     1.442000000
H    -1.279000000    -7.856000000     2.627000000
