144
-2824.71143
O     4.277000000     6.178000000     0.741000000
H     4.785000000     6.707000000     1.356000000
H     3.534000000     5.861000000     1.255000000
O    -1.209000000     6.694000000     2.232000000
H    -1.605000000     6.430000000     1.402000000
H    -1.809000000     6.362000000     2.900000000
O    -0.764000000     6.154000000    -3.633000000
H    -0.224000000     6.042000000    -2.851000000
H    -1.010000000     5.264000000    -3.885000000
O    -2.138000000    -4.562000000    -0.182000000
H    -1.909000000    -5.309000000    -0.734000000
H    -1.302000000    -4.262000000     0.175000000
O     1.766000000    -6.689000000     0.197000000
H     2.140000000    -6.526000000    -0.668000000
H     2.023000000    -7.587000000     0.405000000
O    -4.703000000    -4.016000000    -3.519000000
H    -5.575000000    -4.382000000    -3.376000000
H    -4.441000000    -3.680000000    -2.662000000
O    -0.699000000    -6.726000000     1.669000000
H    -1.345000000    -6.914000000     0.989000000
H     0.134000000    -6.675000000     1.201000000
O     1.744000000    -1.869000000    -2.443000000
H     1.645000000    -2.801000000    -2.637000000
H     1.353000000    -1.763000000    -1.575000000
O    -0.111000000    -5.101000000     3.737000000
H    -0.123000000    -4.261000000     3.278000000
H    -0.410000000    -5.735000000     3.085000000
O     3.365000000     2.473000000    -2.475000000
H     3.257000000     3.044000000    -3.236000000
H     2.779000000     1.735000000    -2.645000000
O    -0.562000000    -1.858000000     5.074000000
H    -0.476000000    -2.552000000     5.727000000
H    -0.122000000    -2.204000000     4.297000000
O    -2.967000000     0.601000000     3.713000000
H    -3.650000000     0.902000000     4.312000000
H    -2.444000000    -0.009000000     4.233000000
O     5.063000000     1.353000000    -4.483000000
H     4.709000000     1.588000000    -3.625000000
H     5.445000000     0.485000000    -4.355000000
O     1.398000000    -2.733000000    -5.382000000
H     0.807000000    -2.221000000    -4.829000000
H     2.213000000    -2.778000000    -4.882000000
O    -3.046000000     0.152000000    -3.615000000
H    -2.358000000    -0.491000000    -3.788000000
H    -3.852000000    -0.278000000    -3.901000000
O     1.921000000     6.303000000     2.144000000
H     1.004000000     6.563000000     2.230000000
H     2.266000000     6.341000000     3.036000000
O     0.990000000     5.595000000    -1.606000000
H     1.159000000     6.145000000    -0.840000000
H     1.857000000     5.307000000    -1.889000000
O    -5.393000000    -1.246000000     1.308000000
H    -5.631000000    -1.152000000     2.230000000
H    -4.564000000    -0.775000000     1.225000000
O     4.146000000    -0.808000000    -1.240000000
H     3.462000000    -1.073000000    -1.855000000
H     3.947000000     0.106000000    -1.038000000
O     1.943000000    -7.428000000     3.938000000
H     1.415000000    -7.115000000     4.673000000
H     2.495000000    -6.681000000     3.705000000
O     0.615000000    -4.251000000    -1.621000000
H     0.501000000    -4.014000000    -0.701000000
H     0.708000000    -5.203000000    -1.614000000
O    -0.999000000    -1.794000000    -4.353000000
H    -1.143000000    -2.586000000    -3.835000000
H    -1.253000000    -2.040000000    -5.242000000
O     3.590000000     2.004000000     3.093000000
H     2.805000000     2.520000000     3.276000000
H     3.660000000     2.005000000     2.138000000
O    -2.973000000    -4.861000000     2.749000000
H    -2.589000000    -4.940000000     3.622000000
H    -2.262000000    -5.092000000     2.152000000
O    -2.816000000     5.635000000     0.339000000
H    -3.182000000     5.863000000    -0.515000000
H    -3.260000000     4.821000000     0.580000000
O     1.134000000     1.900000000     5.517000000
H     0.933000000     2.429000000     4.745000000
H     1.003000000     0.997000000     5.228000000
O    -3.163000000     0.354000000     1.099000000
H    -3.190000000     0.613000000     2.020000000
H    -2.232000000     0.359000000     0.876000000
O    -1.089000000     3.507000000    -4.549000000
H    -1.031000000     3.622000000    -5.498000000
H    -0.294000000     3.028000000    -4.316000000
O    -1.354000000    -6.301000000    -2.280000000
H    -1.207000000    -7.240000000    -2.391000000
H    -1.318000000    -5.946000000    -3.168000000
O    -4.023000000     6.210000000    -1.866000000
H    -4.741000000     6.714000000    -2.250000000
H    -3.729000000     5.635000000    -2.572000000
O    -6.771000000     0.326000000    -1.085000000
H    -5.954000000     0.787000000    -1.277000000
H    -6.722000000     0.131000000    -0.149000000
O     2.905000000    -2.270000000     4.374000000
H     3.222000000    -2.648000000     3.554000000
H     2.024000000    -1.958000000     4.169000000
O    -5.025000000     3.634000000     0.516000000
H    -5.954000000     3.428000000     0.619000000
H    -4.717000000     3.024000000    -0.154000000
O    -3.573000000    -2.189000000     4.582000000
H    -3.560000000    -3.051000000     4.999000000
H    -2.655000000    -1.921000000     4.557000000
O     1.096000000     3.785000000     3.210000000
H     1.289000000     4.537000000     2.649000000
H     0.164000000     3.869000000     3.410000000
O    -4.295000000     1.557000000    -1.141000000
H    -3.877000000     1.434000000    -1.993000000
H    -3.628000000     1.291000000    -0.507000000
O     1.956000000     0.415000000    -3.656000000
H     2.163000000    -0.492000000    -3.428000000
H     1.031000000     0.514000000    -3.428000000
O     2.385000000     1.386000000    -6.576000000
H     2.324000000     1.049000000    -5.682000000
H     1.718000000     0.899000000    -7.061000000
O     5.093000000    -0.228000000     3.592000000
H     4.297000000    -0.742000000     3.455000000
H     4.794000000     0.681000000     3.593000000
O     1.738000000     3.419000000    -4.724000000
H     1.439000000     2.822000000    -5.409000000
H     2.552000000     3.789000000    -5.066000000
O    -3.640000000     3.189000000    -3.790000000
H    -2.737000000     3.437000000    -3.986000000
H    -3.648000000     2.235000000    -3.862000000
O    -1.514000000     3.576000000     4.075000000
H    -1.721000000     3.253000000     4.952000000
H    -2.346000000     3.537000000     3.603000000
O    -2.240000000    -4.597000000     5.824000000
H    -2.158000000    -4.516000000     6.775000000
H    -1.350000000    -4.779000000     5.522000000
O     0.617000000    -4.049000000     6.385000000
H     0.809000000    -4.148000000     5.453000000
H     0.480000000    -4.944000000     6.697000000
O     3.916000000    -1.948000000     1.523000000
H     4.855000000    -1.882000000     1.349000000
H     3.511000000    -1.938000000     0.656000000
O     2.580000000    -5.123000000     2.647000000
H     1.975000000    -4.682000000     3.243000000
H     2.175000000    -5.031000000     1.784000000
O    -4.860000000    -3.258000000    -0.552000000
H    -4.858000000    -2.405000000    -0.118000000
H    -4.138000000    -3.736000000    -0.144000000
O     4.146000000     2.010000000     0.392000000
H     5.083000000     2.042000000     0.201000000
H     3.737000000     2.477000000    -0.336000000
