144
-2802.79380
O    -1.952000000     3.413000000     5.473000000
H    -1.691000000     4.327000000     5.359000000
H    -1.423000000     2.932000000     4.836000000
O     3.196000000     1.035000000    -3.824000000
H     3.486000000     1.740000000    -3.244000000
H     3.064000000     1.460000000    -4.671000000
O     2.768000000     4.360000000     2.789000000
H     3.083000000     4.745000000     1.971000000
H     2.539000000     3.460000000     2.558000000
O    -3.962000000     0.183000000    -7.621000000
H    -4.616000000     0.086000000    -6.928000000
H    -3.568000000     1.040000000    -7.460000000
O     5.853000000     0.444000000    -0.708000000
H     6.181000000     0.558000000    -1.600000000
H     5.999000000    -0.482000000    -0.515000000
O     0.526000000    -5.356000000    -2.058000000
H     0.049000000    -4.529000000    -1.995000000
H     0.718000000    -5.452000000    -2.991000000
O    -1.536000000    -3.225000000     0.383000000
H    -2.449000000    -3.085000000     0.633000000
H    -1.406000000    -2.657000000    -0.376000000
O     2.293000000    -2.299000000     7.068000000
H     1.850000000    -2.815000000     6.393000000
H     2.766000000    -2.946000000     7.591000000
O     1.755000000    -3.999000000     4.992000000
H     2.559000000    -4.117000000     4.487000000
H     1.107000000    -3.713000000     4.348000000
O    -2.856000000     2.318000000    -6.474000000
H    -2.226000000     2.958000000    -6.142000000
H    -3.159000000     1.853000000    -5.694000000
O    -2.744000000     3.998000000     0.129000000
H    -2.855000000     3.306000000    -0.523000000
H    -3.517000000     3.927000000     0.689000000
O    -4.427000000     4.262000000    -2.273000000
H    -4.968000000     4.092000000    -3.045000000
H    -3.793000000     3.544000000    -2.263000000
O    -0.338000000    -3.505000000     3.169000000
H    -0.862000000    -2.930000000     3.726000000
H    -0.603000000    -3.281000000     2.277000000
O    -0.824000000    -0.131000000     6.571000000
H    -0.312000000    -0.072000000     7.377000000
H    -0.945000000     0.778000000     6.296000000
O    -7.189000000     0.328000000    -2.272000000
H    -7.565000000     1.001000000    -2.840000000
H    -6.752000000     0.820000000    -1.576000000
O     3.972000000    -4.777000000     2.346000000
H     4.673000000    -4.394000000     2.874000000
H     3.855000000    -4.162000000     1.622000000
O     0.020000000     5.158000000     1.241000000
H    -0.443000000     5.349000000     0.425000000
H    -0.045000000     5.966000000     1.749000000
O     4.439000000     1.416000000     5.704000000
H     5.176000000     1.117000000     6.236000000
H     3.715000000     1.501000000     6.324000000
O    -1.298000000    -1.468000000    -6.855000000
H    -1.107000000    -0.673000000    -7.352000000
H    -1.344000000    -1.176000000    -5.944000000
O     0.307000000     2.559000000     2.206000000
H     0.075000000     3.345000000     1.712000000
H     0.011000000     1.833000000     1.656000000
O    -1.690000000    -1.287000000    -3.763000000
H    -1.335000000    -0.399000000    -3.742000000
H    -2.603000000    -1.187000000    -3.495000000
O    -0.244000000    -2.662000000    -2.148000000
H    -0.649000000    -2.420000000    -2.981000000
H     0.295000000    -1.906000000    -1.915000000
O    -5.248000000     1.862000000    -0.552000000
H    -4.378000000     1.822000000    -0.951000000
H    -5.105000000     2.292000000     0.291000000
O    -5.814000000     0.228000000     3.480000000
H    -5.314000000     0.988000000     3.777000000
H    -6.282000000     0.539000000     2.705000000
O    -7.947000000     2.692000000    -0.610000000
H    -7.013000000     2.802000000    -0.788000000
H    -8.261000000     3.576000000    -0.422000000
O     5.571000000    -1.323000000     1.801000000
H     5.944000000    -0.527000000     2.179000000
H     5.085000000    -1.726000000     2.520000000
O     4.120000000    -1.451000000    -5.410000000
H     3.615000000    -0.902000000    -4.809000000
H     5.033000000    -1.235000000    -5.221000000
O     0.427000000     2.165000000     4.738000000
H     0.409000000     2.224000000     3.783000000
H     1.172000000     1.597000000     4.929000000
O     4.258000000    -3.689000000    -0.463000000
H     4.621000000    -3.530000000    -1.334000000
H     3.422000000    -4.124000000    -0.627000000
O    -5.031000000     3.739000000     1.713000000
H    -5.422000000     4.584000000     1.493000000
H    -5.056000000     3.706000000     2.669000000
O    -1.222000000     6.150000000    -0.877000000
H    -1.368000000     6.610000000    -1.704000000
H    -1.939000000     5.518000000    -0.825000000
O    -5.808000000     3.268000000    -4.335000000
H    -6.592000000     2.725000000    -4.418000000
H    -5.081000000     2.648000000    -4.381000000
O    -5.738000000     6.209000000    -0.647000000
H    -5.003000000     6.595000000    -0.169000000
H    -5.327000000     5.650000000    -1.306000000
O     0.040000000    -6.214000000     2.201000000
H     0.059000000    -5.265000000     2.329000000
H     0.927000000    -6.435000000     1.918000000
O    -4.085000000    -2.421000000     0.991000000
H    -4.829000000    -3.021000000     0.943000000
H    -4.473000000    -1.574000000     1.206000000
O     4.594000000    -3.425000000    -3.237000000
H     4.834000000    -4.187000000    -3.765000000
H     4.327000000    -2.766000000    -3.877000000
O     2.731000000    -6.891000000     1.530000000
H     3.285000000    -7.587000000     1.885000000
H     3.135000000    -6.082000000     1.843000000
O    -1.622000000     4.006000000    -4.584000000
H    -1.418000000     4.752000000    -4.020000000
H    -1.466000000     3.239000000    -4.033000000
O    -4.027000000     1.271000000    -4.424000000
H    -3.214000000     1.466000000    -3.957000000
H    -4.301000000     0.419000000    -4.084000000
O    -4.613000000    -0.944000000    -3.007000000
H    -5.119000000    -0.360000000    -2.442000000
H    -4.577000000    -1.771000000    -2.525000000
O     3.519000000     1.642000000     0.974000000
H     4.242000000     1.116000000     0.634000000
H     2.802000000     1.018000000     1.088000000
O     4.284000000     3.095000000    -1.338000000
H     4.161000000     3.960000000    -0.947000000
H     4.126000000     2.482000000    -0.620000000
O     7.068000000     1.055000000     1.682000000
H     7.970000000     0.764000000     1.549000000
H     6.656000000     0.955000000     0.824000000
O    -4.766000000     2.958000000     4.137000000
H    -4.043000000     3.066000000     4.755000000
H    -5.395000000     3.636000000     4.383000000
O     2.246000000     5.432000000    -2.874000000
H     2.363000000     4.971000000    -3.705000000
H     1.993000000     6.320000000    -3.126000000
O    -2.012000000    -1.697000000     4.672000000
H    -2.905000000    -1.831000000     4.990000000
H    -1.530000000    -1.381000000     5.436000000
O     7.223000000    -2.960000000     0.584000000
H     6.267000000    -2.980000000     0.636000000
H     7.496000000    -2.496000000     1.375000000
O     4.402000000    -1.046000000     4.427000000
H     4.452000000    -0.200000000     4.872000000
H     4.324000000    -1.685000000     5.135000000
