144
-2829.97888
O    -2.981000000    -4.131000000     2.917000000
H    -2.473000000    -4.860000000     2.563000000
H    -3.893000000    -4.410000000     2.833000000
O     3.171000000    -0.764000000    -0.311000000
H     2.808000000    -1.260000000    -1.045000000
H     2.500000000    -0.111000000    -0.109000000
O    -2.188000000    -2.866000000     5.740000000
H    -2.706000000    -2.887000000     6.545000000
H    -2.657000000    -3.443000000     5.138000000
O     1.735000000    -1.697000000     4.534000000
H     1.644000000    -2.643000000     4.649000000
H     2.285000000    -1.602000000     3.757000000
O     2.985000000    -4.135000000    -0.771000000
H     2.382000000    -3.522000000    -0.350000000
H     3.856000000    -3.796000000    -0.562000000
O    -2.006000000     4.481000000     0.836000000
H    -2.491000000     3.659000000     0.906000000
H    -1.337000000     4.309000000     0.174000000
O     0.788000000     0.806000000     6.454000000
H     0.660000000     0.033000000     7.003000000
H     1.080000000     0.457000000     5.612000000
O     3.739000000     1.087000000     3.656000000
H     2.820000000     1.257000000     3.862000000
H     4.228000000     1.642000000     4.264000000
O     1.249000000     5.287000000    -2.869000000
H     0.694000000     6.042000000    -3.063000000
H     0.670000000     4.674000000    -2.416000000
O     3.158000000    -5.137000000     5.266000000
H     3.452000000    -5.985000000     4.934000000
H     2.287000000    -5.020000000     4.887000000
O    -2.704000000    -0.677000000     4.319000000
H    -3.321000000    -0.302000000     4.947000000
H    -2.412000000    -1.492000000     4.727000000
O     2.919000000    -4.211000000     1.965000000
H     3.148000000    -3.296000000     2.129000000
H     2.468000000    -4.492000000     2.761000000
O    -0.612000000    -5.905000000     2.719000000
H    -1.306000000    -6.563000000     2.685000000
H    -0.333000000    -5.804000000     1.809000000
O    -0.807000000     7.946000000    -0.494000000
H    -0.211000000     7.258000000    -0.198000000
H    -0.936000000     8.499000000     0.276000000
O    -2.187000000     4.884000000    -2.577000000
H    -1.556000000     4.177000000    -2.709000000
H    -1.907000000     5.306000000    -1.764000000
O    -5.264000000     4.230000000    -2.325000000
H    -5.413000000     4.986000000    -1.757000000
H    -4.312000000     4.176000000    -2.408000000
O    -4.050000000     0.146000000    -2.630000000
H    -3.569000000     0.950000000    -2.828000000
H    -4.803000000     0.167000000    -3.220000000
O    -2.359000000     1.985000000     4.102000000
H    -2.142000000     1.109000000     4.423000000
H    -2.892000000     1.828000000     3.322000000
O    -3.066000000    -2.085000000    -0.793000000
H    -2.530000000    -2.844000000    -1.025000000
H    -3.051000000    -1.534000000    -1.575000000
O     1.269000000     2.286000000     4.013000000
H     1.153000000     3.231000000     4.110000000
H     0.752000000     1.907000000     4.724000000
O     2.995000000    -0.202000000    -4.564000000
H     3.190000000    -0.847000000    -3.884000000
H     3.620000000     0.507000000    -4.407000000
O     0.864000000     2.045000000    -4.930000000
H     1.382000000     1.247000000    -4.827000000
H     0.553000000     2.245000000    -4.047000000
O    -1.457000000    -4.730000000    -0.752000000
H    -1.407000000    -5.032000000    -1.659000000
H    -0.567000000    -4.833000000    -0.415000000
O     0.066000000    -4.845000000    -5.402000000
H    -0.074000000    -4.292000000    -6.170000000
H     0.355000000    -4.239000000    -4.719000000
O    -0.603000000     4.461000000     3.911000000
H    -0.655000000     5.358000000     3.583000000
H    -1.254000000     3.980000000     3.399000000
O    -3.533000000     6.709000000     1.511000000
H    -2.755000000     6.152000000     1.522000000
H    -4.143000000     6.281000000     2.111000000
O     2.284000000     5.147000000    -5.544000000
H     1.410000000     5.104000000    -5.932000000
H     2.181000000     4.754000000    -4.677000000
O    -3.328000000     1.944000000     0.831000000
H    -2.935000000     1.074000000     0.758000000
H    -4.269000000     1.778000000     0.881000000
O     0.934000000    -5.771000000     0.333000000
H     1.776000000    -5.401000000     0.599000000
H     1.068000000    -6.718000000     0.364000000
O     1.991000000    -6.460000000    -2.683000000
H     2.150000000    -5.808000000    -2.001000000
H     2.175000000    -7.299000000    -2.261000000
O     2.145000000     3.763000000     1.672000000
H     1.802000000     3.001000000     2.140000000
H     2.698000000     4.209000000     2.313000000
O    -2.139000000    -2.715000000    -4.274000000
H    -2.771000000    -3.432000000    -4.232000000
H    -2.215000000    -2.380000000    -5.167000000
O     3.436000000    -1.329000000     2.316000000
H     3.538000000    -0.512000000     2.805000000
H     3.451000000    -1.062000000     1.397000000
O    -3.489000000    -0.812000000     1.591000000
H    -2.983000000    -0.850000000     2.402000000
H    -2.955000000    -1.285000000     0.953000000
O    -4.114000000    -5.126000000    -0.830000000
H    -4.542000000    -4.546000000    -0.200000000
H    -3.178000000    -4.964000000    -0.707000000
O     4.672000000    -6.309000000     1.567000000
H     4.180000000    -5.517000000     1.782000000
H     4.902000000    -6.205000000     0.644000000
O    -3.750000000     5.652000000    -4.655000000
H    -3.273000000     5.060000000    -4.074000000
H    -3.544000000     6.527000000    -4.326000000
O    -2.384000000     2.246000000    -3.854000000
H    -2.159000000     2.520000000    -4.743000000
H    -1.680000000     2.598000000    -3.309000000
O     5.014000000     2.233000000     1.457000000
H     4.503000000     1.472000000     1.731000000
H     5.840000000     2.151000000     1.933000000
O     0.586000000    -2.108000000    -4.327000000
H    -0.350000000    -2.207000000    -4.151000000
H     0.639000000    -1.368000000    -4.933000000
O    -0.394000000     5.329000000    -6.313000000
H    -1.117000000     4.824000000    -5.941000000
H    -0.786000000     5.808000000    -7.042000000
O     3.346000000     2.090000000    -0.811000000
H     2.681000000     2.776000000    -0.880000000
H     3.919000000     2.383000000    -0.102000000
O     3.057000000    -2.367000000    -2.843000000
H     3.283000000    -3.209000000    -2.447000000
H     2.272000000    -2.548000000    -3.359000000
O     3.799000000     5.894000000    -2.565000000
H     2.876000000     5.643000000    -2.520000000
H     4.031000000     6.113000000    -1.662000000
O     3.526000000     6.909000000     0.201000000
H     4.013000000     6.181000000     0.587000000
H     2.627000000     6.588000000     0.135000000
O    -5.346000000    -3.817000000     1.290000000
H    -4.870000000    -2.992000000     1.194000000
H    -6.254000000    -3.553000000     1.440000000
O     0.834000000     5.891000000     0.438000000
H     0.536000000     5.199000000    -0.153000000
H     1.122000000     5.428000000     1.224000000
O     0.811000000    -4.309000000     4.124000000
H     0.229000000    -4.146000000     4.865000000
H     0.279000000    -4.814000000     3.508000000
