144
-2825.23957
O    -4.668000000    -3.030000000     3.263000000
H    -4.087000000    -3.411000000     2.604000000
H    -4.218000000    -2.235000000     3.548000000
O     3.560000000    -4.101000000    -0.560000000
H     3.621000000    -3.839000000     0.358000000
H     2.867000000    -4.761000000    -0.576000000
O    -1.904000000     7.031000000     2.761000000
H    -2.061000000     6.145000000     2.434000000
H    -1.680000000     7.538000000     1.981000000
O     2.256000000     1.886000000     3.943000000
H     1.971000000     2.778000000     3.748000000
H     2.063000000     1.770000000     4.873000000
O    -0.911000000     6.056000000    -1.448000000
H    -0.442000000     6.145000000    -2.278000000
H    -1.035000000     5.113000000    -1.343000000
O    -1.359000000     4.358000000     1.541000000
H    -1.747000000     3.584000000     1.949000000
H    -1.228000000     4.106000000     0.627000000
O    -6.263000000    -0.321000000    -1.955000000
H    -5.851000000     0.502000000    -1.692000000
H    -5.552000000    -0.832000000    -2.342000000
O     0.623000000     4.845000000    -6.579000000
H     0.236000000     4.272000000    -5.918000000
H     0.597000000     4.331000000    -7.386000000
O    -0.514000000     3.318000000    -4.730000000
H    -1.431000000     3.385000000    -4.996000000
H    -0.525000000     2.721000000    -3.981000000
O     6.185000000    -0.333000000     1.956000000
H     5.738000000     0.123000000     1.242000000
H     5.646000000    -0.158000000     2.727000000
O    -0.976000000    -4.749000000    -0.040000000
H    -0.430000000    -4.335000000    -0.709000000
H    -0.415000000    -5.425000000     0.341000000
O    -3.898000000     4.721000000    -1.668000000
H    -3.284000000     3.989000000    -1.618000000
H    -3.360000000     5.497000000    -1.511000000
O    -3.879000000    -1.556000000    -6.151000000
H    -3.683000000    -1.215000000    -5.279000000
H    -4.480000000    -0.914000000    -6.530000000
O     1.023000000    -5.134000000     5.588000000
H     0.959000000    -6.029000000     5.920000000
H     0.666000000    -5.181000000     4.701000000
O    -4.270000000     1.434000000    -1.010000000
H    -3.635000000     1.678000000    -1.683000000
H    -3.768000000     0.906000000    -0.388000000
O    -1.809000000    -1.981000000     4.213000000
H    -1.944000000    -2.371000000     5.076000000
H    -0.941000000    -1.581000000     4.263000000
O     1.819000000     1.857000000    -3.845000000
H     2.021000000     2.604000000    -4.407000000
H     1.939000000     2.187000000    -2.954000000
O    -0.085000000    -5.140000000     3.397000000
H    -0.777000000    -4.517000000     3.618000000
H    -0.526000000    -5.817000000     2.885000000
O     1.268000000    -2.580000000    -4.496000000
H     1.735000000    -2.364000000    -3.689000000
H     1.592000000    -1.947000000    -5.137000000
O    -1.246000000     8.005000000     0.423000000
H    -0.997000000     7.319000000    -0.196000000
H    -0.956000000     8.818000000     0.008000000
O    -3.765000000     7.520000000    -0.561000000
H    -4.270000000     8.086000000     0.023000000
H    -2.943000000     7.368000000    -0.095000000
O    -4.240000000    -2.334000000    -2.809000000
H    -4.599000000    -2.668000000    -1.987000000
H    -4.592000000    -2.919000000    -3.480000000
O    -4.956000000    -3.001000000    -0.352000000
H    -5.732000000    -2.651000000     0.086000000
H    -4.491000000    -3.482000000     0.332000000
O     1.747000000    -6.216000000     0.069000000
H     2.399000000    -6.901000000    -0.084000000
H     1.173000000    -6.257000000    -0.695000000
O     3.182000000    -2.301000000    -2.538000000
H     3.872000000    -2.398000000    -3.195000000
H     3.508000000    -2.782000000    -1.777000000
O     4.116000000    -1.510000000     4.298000000
H     3.177000000    -1.535000000     4.485000000
H     4.220000000    -0.777000000     3.692000000
O     3.854000000    -3.601000000     2.309000000
H     3.378000000    -4.308000000     2.744000000
H     3.720000000    -2.839000000     2.873000000
O     2.961000000     2.920000000    -1.445000000
H     2.588000000     3.435000000    -0.730000000
H     3.800000000     2.609000000    -1.104000000
O    -3.278000000     3.734000000    -4.955000000
H    -4.103000000     3.310000000    -5.193000000
H    -3.185000000     3.567000000    -4.018000000
O     0.537000000     0.730000000    -6.236000000
H     0.589000000     1.329000000    -6.980000000
H     0.616000000     1.296000000    -5.467000000
O    -3.202000000     0.203000000     1.143000000
H    -2.492000000    -0.421000000     0.996000000
H    -3.220000000     0.327000000     2.092000000
O    -3.227000000    -4.664000000     1.633000000
H    -2.416000000    -4.431000000     1.182000000
H    -3.322000000    -5.605000000     1.485000000
O     1.586000000    -2.331000000     5.164000000
H     1.467000000    -3.208000000     5.528000000
H     1.996000000    -1.832000000     5.870000000
O     0.181000000    -0.050000000     5.024000000
H     0.528000000     0.508000000     5.720000000
H     0.672000000    -0.868000000     5.105000000
O     6.687000000    -3.552000000     2.484000000
H     7.005000000    -3.522000000     3.386000000
H     5.807000000    -3.922000000     2.552000000
O    -1.263000000    -7.140000000     2.125000000
H    -0.587000000    -7.649000000     1.678000000
H    -1.986000000    -7.755000000     2.244000000
O     2.384000000    -6.001000000     2.571000000
H     2.300000000    -6.185000000     1.636000000
H     1.563000000    -5.567000000     2.804000000
O     0.770000000    -4.084000000    -2.044000000
H     1.418000000    -3.383000000    -1.976000000
H     0.893000000    -4.440000000    -2.924000000
O     1.395000000     4.523000000     3.434000000
H     1.182000000     4.335000000     2.520000000
H     2.059000000     5.211000000     3.389000000
O    -3.326000000    -5.630000000    -1.398000000
H    -3.263000000    -5.873000000    -2.322000000
H    -2.452000000    -5.310000000    -1.175000000
O     3.600000000     0.026000000    -5.266000000
H     4.200000000     0.766000000    -5.362000000
H     2.853000000     0.384000000    -4.787000000
O     3.810000000     0.573000000     2.407000000
H     3.280000000     1.128000000     2.980000000
H     3.488000000     0.761000000     1.526000000
O    -1.728000000    -3.681000000    -3.432000000
H    -2.276000000    -3.063000000    -2.949000000
H    -0.841000000    -3.514000000    -3.114000000
O    -0.117000000     6.326000000    -3.941000000
H    -0.396000000     6.923000000    -4.636000000
H     0.069000000     5.503000000    -4.392000000
O    -3.773000000    -0.289000000     4.133000000
H    -3.167000000    -0.992000000     4.363000000
H    -3.511000000     0.445000000     4.689000000
O     1.589000000     4.786000000     0.124000000
H     1.863000000     5.621000000    -0.255000000
H     0.701000000     4.652000000    -0.209000000
O    -1.984000000     2.369000000     3.268000000
H    -1.363000000     1.643000000     3.214000000
H    -1.919000000     2.673000000     4.173000000
O    -6.200000000     3.366000000    -2.510000000
H    -5.681000000     3.380000000    -1.705000000
H    -5.999000000     4.198000000    -2.939000000
