144
-2809.47798
O    -2.196000000    -2.708000000     6.287000000
H    -1.896000000    -3.615000000     6.347000000
H    -2.988000000    -2.752000000     5.751000000
O     4.115000000     2.372000000     2.912000000
H     4.643000000     2.722000000     3.630000000
H     4.538000000     1.544000000     2.685000000
O     2.162000000     6.967000000     3.257000000
H     2.322000000     6.908000000     4.199000000
H     1.411000000     6.393000000     3.106000000
O    -1.501000000    -0.943000000     4.183000000
H    -1.850000000    -1.303000000     4.998000000
H    -0.558000000    -1.095000000     4.237000000
O    -0.126000000     5.125000000     2.539000000
H    -1.057000000     4.924000000     2.634000000
H     0.194000000     4.483000000     1.905000000
O     1.724000000    -1.753000000     4.332000000
H     1.356000000    -2.633000000     4.419000000
H     2.662000000    -1.871000000     4.478000000
O     5.585000000     3.923000000    -4.641000000
H     4.855000000     3.392000000    -4.322000000
H     5.539000000     3.844000000    -5.594000000
O     2.163000000     4.824000000    -3.449000000
H     2.499000000     4.206000000    -4.099000000
H     1.422000000     4.370000000    -3.048000000
O     1.041000000    -4.452000000     4.471000000
H     0.546000000    -5.255000000     4.633000000
H     1.950000000    -4.742000000     4.393000000
O    -3.296000000    -6.222000000     1.515000000
H    -2.952000000    -5.572000000     2.127000000
H    -2.746000000    -6.134000000     0.737000000
O     0.713000000     6.261000000    -0.697000000
H     0.946000000     5.461000000    -0.227000000
H     1.226000000     6.223000000    -1.505000000
O    -1.720000000     3.819000000    -2.272000000
H    -0.771000000     3.744000000    -2.169000000
H    -2.034000000     4.087000000    -1.409000000
O    -2.775000000     6.775000000     0.130000000
H    -2.997000000     7.469000000     0.752000000
H    -1.818000000     6.767000000     0.112000000
O    -3.387000000     0.906000000    -1.378000000
H    -3.774000000     0.327000000    -0.721000000
H    -2.571000000     0.471000000    -1.629000000
O    -0.833000000     1.969000000     4.011000000
H    -1.361000000     1.235000000     4.327000000
H     0.071000000     1.664000000     4.089000000
O    -3.766000000    -1.506000000     0.181000000
H    -3.179000000    -2.096000000     0.654000000
H    -4.012000000    -1.994000000    -0.605000000
O     3.773000000     2.315000000    -2.863000000
H     4.006000000     1.906000000    -2.029000000
H     2.841000000     2.513000000    -2.780000000
O    -0.977000000    -6.591000000    -0.269000000
H    -1.081000000    -7.542000000    -0.243000000
H    -0.065000000    -6.443000000    -0.019000000
O    -3.243000000     1.590000000    -6.083000000
H    -2.882000000     2.030000000    -6.853000000
H    -2.772000000     0.758000000    -6.041000000
O    -2.948000000     4.827000000     2.118000000
H    -3.227000000     4.046000000     1.640000000
H    -3.134000000     5.552000000     1.521000000
O     2.651000000     2.929000000    -5.573000000
H     3.264000000     2.943000000    -6.308000000
H     1.878000000     3.390000000    -5.897000000
O    -3.300000000     3.212000000    -0.153000000
H    -3.455000000     2.502000000    -0.775000000
H    -2.972000000     2.775000000     0.633000000
O     1.918000000    -7.409000000     1.551000000
H     2.186000000    -7.598000000     0.652000000
H     2.592000000    -6.814000000     1.881000000
O     2.119000000    -4.995000000    -2.251000000
H     2.629000000    -5.791000000    -2.404000000
H     2.705000000    -4.428000000    -1.750000000
O    -3.587000000    -5.764000000    -1.746000000
H    -3.615000000    -6.589000000    -1.262000000
H    -3.156000000    -5.984000000    -2.571000000
O     4.720000000    -0.343000000     2.330000000
H     4.673000000    -1.221000000     1.952000000
H     4.622000000    -0.481000000     3.272000000
O     4.618000000     1.497000000    -0.319000000
H     4.640000000     1.068000000     0.535000000
H     4.529000000     2.429000000    -0.117000000
O    -3.534000000     3.428000000    -4.305000000
H    -3.015000000     3.435000000    -3.502000000
H    -3.014000000     2.913000000    -4.922000000
O     1.440000000    -1.048000000    -4.093000000
H     1.263000000    -0.960000000    -3.157000000
H     1.437000000    -1.992000000    -4.250000000
O    -1.161000000    -0.586000000    -5.540000000
H    -1.754000000    -1.266000000    -5.859000000
H    -0.720000000    -0.984000000    -4.790000000
O    -6.059000000     0.783000000    -2.304000000
H    -6.342000000     1.688000000    -2.433000000
H    -5.116000000     0.846000000    -2.156000000
O    -4.297000000    -3.004000000    -2.124000000
H    -3.918000000    -2.753000000    -2.966000000
H    -4.126000000    -3.944000000    -2.056000000
O    -2.499000000     1.646000000     2.013000000
H    -2.016000000     2.088000000     2.711000000
H    -2.038000000     0.816000000     1.891000000
O    -2.184000000    -4.439000000     3.213000000
H    -2.574000000    -4.152000000     4.039000000
H    -1.314000000    -4.755000000     3.457000000
O    -1.076000000     5.324000000    -4.417000000
H    -1.443000000     4.926000000    -3.628000000
H    -1.584000000     4.946000000    -5.135000000
O    -0.154000000     2.076000000    -6.010000000
H    -0.751000000     1.356000000    -5.806000000
H     0.689000000     1.650000000    -6.168000000
O    -0.344000000    -7.107000000     3.293000000
H     0.116000000    -6.704000000     2.557000000
H    -0.006000000    -8.002000000     3.326000000
O    -5.177000000    -1.159000000     2.695000000
H    -5.992000000    -0.693000000     2.507000000
H    -4.698000000    -1.147000000     1.866000000
O     0.563000000     7.292000000    -5.015000000
H     0.976000000     7.884000000    -4.386000000
H     0.055000000     6.687000000    -4.475000000
O    -0.510000000    -4.813000000    -2.385000000
H     0.425000000    -4.990000000    -2.279000000
H    -0.923000000    -5.263000000    -1.648000000
O     1.773000000     1.087000000     4.239000000
H     2.660000000     1.239000000     3.914000000
H     1.781000000     0.177000000     4.537000000
O     2.521000000    -1.293000000    -1.445000000
H     2.734000000    -2.004000000    -0.841000000
H     2.085000000    -0.638000000    -0.900000000
O     0.992000000    -3.783000000    -4.805000000
H     1.847000000    -4.013000000    -5.170000000
H     0.894000000    -4.356000000    -4.045000000
O     4.258000000     5.780000000    -1.942000000
H     3.425000000     5.481000000    -2.306000000
H     4.292000000     5.392000000    -1.068000000
O     3.659000000     4.227000000     0.467000000
H     4.087000000     4.147000000     1.319000000
H     2.767000000     3.914000000     0.617000000
O    -0.569000000     7.769000000     1.295000000
H    -0.360000000     7.040000000     1.879000000
H    -0.032000000     7.614000000     0.518000000
O    -4.264000000    -2.760000000     4.634000000
H    -4.409000000    -1.931000000     4.178000000
H    -4.709000000    -3.412000000     4.093000000
O     2.047000000     3.813000000     5.288000000
H     1.299000000     4.080000000     5.823000000
H     1.983000000     2.858000000     5.248000000
