144
-2838.16674
O    -3.329000000    -1.778000000     3.332000000
H    -3.416000000    -1.836000000     2.380000000
H    -2.663000000    -1.105000000     3.471000000
O     3.622000000    -2.879000000     1.073000000
H     4.477000000    -2.453000000     1.012000000
H     3.444000000    -2.925000000     2.013000000
O    -1.249000000    -5.887000000    -4.661000000
H    -1.212000000    -5.493000000    -3.790000000
H    -2.167000000    -6.134000000    -4.774000000
O     2.383000000     3.550000000     3.474000000
H     1.715000000     2.874000000     3.584000000
H     2.710000000     3.710000000     4.359000000
O     5.293000000     5.018000000     1.695000000
H     4.540000000     4.667000000     1.220000000
H     6.050000000     4.595000000     1.290000000
O     1.347000000     6.396000000    -0.747000000
H     2.107000000     6.510000000    -0.175000000
H     1.028000000     5.516000000    -0.549000000
O    -1.022000000     3.626000000     2.018000000
H    -1.652000000     4.340000000     1.917000000
H    -0.349000000     3.806000000     1.361000000
O    -4.627000000     1.350000000    -4.798000000
H    -4.065000000     1.869000000    -4.224000000
H    -4.044000000     1.047000000    -5.495000000
O    -1.076000000     3.322000000    -6.128000000
H    -0.826000000     4.034000000    -5.539000000
H    -0.531000000     2.584000000    -5.854000000
O     0.452000000     4.712000000    -4.126000000
H     0.166000000     5.496000000    -3.658000000
H     0.367000000     4.006000000    -3.486000000
O     0.284000000    -7.313000000     0.791000000
H     0.811000000    -6.681000000     1.281000000
H     0.686000000    -8.160000000     0.983000000
O    -1.867000000     5.061000000    -2.164000000
H    -1.264000000     4.338000000    -1.990000000
H    -1.942000000     5.517000000    -1.327000000
O    -2.561000000    -2.588000000    -5.828000000
H    -2.584000000    -2.901000000    -4.923000000
H    -3.407000000    -2.848000000    -6.193000000
O    -3.967000000     6.774000000    -3.214000000
H    -3.176000000     6.325000000    -2.915000000
H    -4.366000000     7.116000000    -2.413000000
O    -2.808000000     2.987000000    -3.752000000
H    -2.637000000     3.701000000    -3.138000000
H    -1.965000000     2.831000000    -4.178000000
O    -2.979000000    -4.721000000     3.855000000
H    -2.626000000    -4.767000000     4.744000000
H    -3.231000000    -3.804000000     3.745000000
O     3.501000000     7.036000000     0.814000000
H     4.358000000     6.633000000     0.953000000
H     3.645000000     7.968000000     0.979000000
O     0.914000000     1.747000000    -4.705000000
H     1.100000000     2.118000000    -3.842000000
H     1.776000000     1.626000000    -5.104000000
O     0.364000000    -4.796000000     3.536000000
H     0.819000000    -5.420000000     2.969000000
H    -0.540000000    -4.801000000     3.221000000
O     0.691000000    -3.129000000    -3.396000000
H     1.406000000    -2.839000000    -2.830000000
H     1.085000000    -3.194000000    -4.266000000
O     0.025000000     8.204000000     1.820000000
H     0.744000000     8.585000000     1.316000000
H     0.405000000     7.427000000     2.231000000
O     4.693000000     1.819000000     4.112000000
H     5.096000000     1.355000000     3.379000000
H     4.351000000     2.626000000     3.726000000
O    -1.527000000     6.808000000    -0.048000000
H    -2.202000000     7.377000000     0.321000000
H    -0.731000000     7.037000000     0.431000000
O    -3.350000000    -3.217000000    -3.304000000
H    -3.222000000    -2.416000000    -2.796000000
H    -4.094000000    -3.650000000    -2.885000000
O    -3.877000000    -1.354000000    -1.030000000
H    -3.464000000    -0.619000000    -0.577000000
H    -3.776000000    -2.093000000    -0.430000000
O     2.264000000    -5.492000000     1.382000000
H     3.022000000    -6.077000000     1.389000000
H     2.624000000    -4.632000000     1.602000000
O     3.063000000    -2.559000000    -1.803000000
H     4.010000000    -2.641000000    -1.914000000
H     2.910000000    -2.770000000    -0.882000000
O     2.932000000    -3.521000000     3.593000000
H     2.021000000    -3.741000000     3.788000000
H     3.435000000    -3.945000000     4.288000000
O     2.802000000     0.413000000    -2.257000000
H     2.785000000    -0.469000000    -1.887000000
H     1.978000000     0.809000000    -1.972000000
O     1.217000000    -1.201000000    -6.131000000
H     1.089000000    -0.559000000    -6.829000000
H     1.032000000    -0.718000000    -5.325000000
O    -5.735000000    -0.510000000    -2.923000000
H    -5.288000000    -0.271000000    -3.734000000
H    -5.053000000    -0.907000000    -2.381000000
O    -3.190000000     0.937000000     0.371000000
H    -3.461000000     1.245000000     1.236000000
H    -2.264000000     1.173000000     0.312000000
O    -3.626000000    -3.090000000     1.057000000
H    -2.882000000    -3.692000000     1.088000000
H    -4.385000000    -3.636000000     1.260000000
O     0.187000000    -2.359000000     5.457000000
H     0.913000000    -2.098000000     6.023000000
H     0.458000000    -3.202000000     5.093000000
O     1.341000000    -7.298000000    -2.232000000
H     0.910000000    -6.877000000    -1.488000000
H     1.019000000    -8.199000000    -2.217000000
O    -3.230000000     1.659000000     2.944000000
H    -2.325000000     1.447000000     2.715000000
H    -3.200000000     1.856000000     3.880000000
O     1.451000000     5.948000000     2.361000000
H     1.830000000     5.229000000     2.866000000
H     2.160000000     6.236000000     1.785000000
O    -1.966000000    -5.408000000    -0.004000000
H    -1.800000000    -5.189000000    -0.921000000
H    -1.275000000    -6.029000000     0.223000000
O     5.223000000     1.874000000     0.912000000
H     5.796000000     2.282000000     0.263000000
H     4.355000000     2.232000000     0.723000000
O    -1.244000000    -4.596000000    -2.416000000
H    -2.053000000    -4.180000000    -2.714000000
H    -0.546000000    -4.063000000    -2.796000000
O    -3.431000000    -6.825000000     2.005000000
H    -3.571000000    -6.064000000     1.442000000
H    -3.510000000    -6.482000000     2.895000000
O     4.572000000     4.826000000    -2.470000000
H     4.211000000     4.479000000    -3.286000000
H     4.712000000     5.756000000    -2.646000000
O     0.617000000     7.408000000    -3.121000000
H     1.220000000     7.240000000    -3.846000000
H     0.999000000     6.940000000    -2.379000000
O    -1.389000000    -0.039000000     4.833000000
H    -0.858000000    -0.768000000     5.153000000
H    -0.798000000     0.713000000     4.847000000
O     3.454000000     3.719000000    -0.232000000
H     3.954000000     3.964000000    -1.011000000
H     2.556000000     3.983000000    -0.431000000
O    -0.060000000     2.533000000     4.273000000
H    -0.314000000     3.090000000     5.009000000
H    -0.477000000     2.936000000     3.512000000
O     3.527000000     4.615000000    -5.202000000
H     2.611000000     4.817000000    -5.392000000
H     4.006000000     5.401000000    -5.467000000
O    -5.060000000     2.390000000    -0.805000000
H    -4.920000000     2.087000000    -1.702000000
H    -4.328000000     2.020000000    -0.311000000
