144
-2778.56183
O    -3.442000000    -3.347000000     2.918000000
H    -3.379000000    -2.918000000     2.065000000
H    -2.557000000    -3.295000000     3.278000000
O     4.135000000    -0.900000000     1.663000000
H     4.556000000    -0.150000000     1.243000000
H     3.591000000    -0.515000000     2.350000000
O     0.274000000     7.698000000     1.982000000
H     0.828000000     7.947000000     2.722000000
H     0.295000000     6.741000000     1.980000000
O     5.951000000    -3.187000000    -0.671000000
H     5.440000000    -2.463000000    -1.032000000
H     5.669000000    -3.952000000    -1.172000000
O    -3.864000000     1.245000000     0.287000000
H    -4.655000000     1.094000000    -0.230000000
H    -3.305000000     1.775000000    -0.281000000
O    -1.083000000    -3.121000000     4.433000000
H    -1.240000000    -4.053000000     4.278000000
H    -0.796000000    -3.075000000     5.345000000
O    -1.343000000    -5.357000000    -1.686000000
H    -1.287000000    -5.320000000    -0.731000000
H    -2.245000000    -5.622000000    -1.863000000
O     1.518000000     4.159000000     2.517000000
H     1.355000000     4.855000000     3.153000000
H     1.163000000     4.498000000     1.695000000
O    -2.844000000     2.499000000    -6.578000000
H    -3.064000000     1.650000000    -6.960000000
H    -3.195000000     2.459000000    -5.688000000
O    -3.669000000     2.349000000    -4.114000000
H    -3.917000000     3.224000000    -4.413000000
H    -3.171000000     2.503000000    -3.311000000
O    -2.381000000     6.623000000    -0.858000000
H    -2.953000000     5.872000000    -0.699000000
H    -2.078000000     6.507000000    -1.759000000
O     3.884000000    -4.590000000     1.687000000
H     4.662000000    -4.819000000     1.179000000
H     3.507000000    -3.842000000     1.224000000
O     3.910000000    -1.302000000    -1.481000000
H     3.546000000    -0.437000000    -1.670000000
H     3.831000000    -1.393000000    -0.531000000
O     2.737000000    -4.078000000    -1.768000000
H     2.004000000    -4.112000000    -2.382000000
H     3.102000000    -3.201000000    -1.880000000
O    -1.272000000    -6.447000000     1.383000000
H    -0.413000000    -6.257000000     1.759000000
H    -1.798000000    -6.744000000     2.125000000
O     4.498000000     1.016000000     3.956000000
H     3.854000000     1.211000000     4.637000000
H     4.560000000     1.823000000     3.446000000
O    -3.492000000    -2.015000000     0.444000000
H    -3.000000000    -1.323000000     0.002000000
H    -4.408000000    -1.753000000     0.355000000
O     4.461000000     1.532000000     0.429000000
H     4.847000000     1.278000000    -0.410000000
H     4.184000000     2.439000000     0.299000000
O     2.853000000    -4.150000000     5.215000000
H     3.784000000    -4.236000000     5.009000000
H     2.665000000    -3.220000000     5.089000000
O     3.598000000     0.478000000    -4.163000000
H     3.036000000     0.531000000    -3.390000000
H     3.965000000     1.357000000    -4.253000000
O    -1.205000000     4.871000000    -3.610000000
H    -2.080000000     5.128000000    -3.901000000
H    -1.361000000     4.281000000    -2.874000000
O     5.286000000    -1.421000000     5.180000000
H     4.628000000    -0.870000000     4.756000000
H     5.714000000    -1.881000000     4.459000000
O    -0.239000000     5.443000000     0.572000000
H    -0.833000000     6.147000000     0.311000000
H    -0.394000000     4.749000000    -0.069000000
O    -4.446000000    -3.404000000    -1.718000000
H    -4.143000000    -3.321000000    -0.814000000
H    -5.357000000    -3.113000000    -1.693000000
O     4.699000000     3.951000000     3.372000000
H     5.032000000     4.508000000     2.668000000
H     3.759000000     3.888000000     3.204000000
O     1.534000000     1.849000000     4.181000000
H     0.961000000     1.101000000     4.011000000
H     1.342000000     2.463000000     3.471000000
O     0.467000000    -3.985000000    -3.154000000
H    -0.098000000    -4.556000000    -2.634000000
H     0.139000000    -4.073000000    -4.049000000
O     4.403000000     4.233000000    -0.805000000
H     4.537000000     4.709000000     0.014000000
H     4.257000000     4.917000000    -1.459000000
O     2.142000000    -1.509000000     5.961000000
H     1.613000000    -2.006000000     6.586000000
H     1.504000000    -1.121000000     5.363000000
O     0.013000000    -0.295000000     4.472000000
H    -0.300000000     0.050000000     5.308000000
H    -0.644000000    -0.944000000     4.219000000
O     3.369000000    -6.640000000    -2.017000000
H     3.063000000    -6.702000000    -2.922000000
H     3.183000000    -5.736000000    -1.763000000
O    -5.617000000     0.572000000    -3.575000000
H    -5.865000000     0.622000000    -2.652000000
H    -4.882000000     1.179000000    -3.659000000
O     6.157000000    -2.596000000     2.665000000
H     5.503000000    -2.087000000     2.186000000
H     5.863000000    -3.504000000     2.581000000
O    -6.426000000     1.399000000    -1.160000000
H    -7.223000000     1.106000000    -1.601000000
H    -6.661000000     2.244000000    -0.777000000
O    -3.854000000     5.227000000    -4.381000000
H    -4.390000000     5.817000000    -3.851000000
H    -3.644000000     5.733000000    -5.166000000
O    -2.328000000    -2.846000000    -3.566000000
H    -1.780000000    -3.598000000    -3.341000000
H    -2.810000000    -2.652000000    -2.762000000
O     1.329000000     6.474000000    -3.501000000
H     1.233000000     7.173000000    -2.855000000
H     0.513000000     5.977000000    -3.439000000
O     1.379000000    -5.723000000     2.186000000
H     2.188000000    -5.331000000     1.859000000
H     1.660000000    -6.530000000     2.617000000
O    -2.436000000     0.836000000     2.519000000
H    -1.706000000     0.236000000     2.364000000
H    -2.990000000     0.746000000     1.744000000
O    -4.198000000     4.687000000    -0.119000000
H    -3.681000000     4.093000000    -0.664000000
H    -5.042000000     4.747000000    -0.566000000
O     2.305000000     1.165000000    -2.062000000
H     2.132000000     2.104000000    -1.991000000
H     1.526000000     0.750000000    -1.691000000
O    -0.108000000     1.824000000    -6.193000000
H    -0.966000000     1.614000000    -5.824000000
H    -0.033000000     2.773000000    -6.098000000
O    -3.899000000    -5.917000000    -2.662000000
H    -4.772000000    -6.117000000    -2.999000000
H    -3.906000000    -4.969000000    -2.527000000
O    -3.730000000    -2.771000000    -5.931000000
H    -4.417000000    -2.105000000    -5.966000000
H    -3.371000000    -2.698000000    -5.046000000
O     4.336000000     3.197000000    -3.618000000
H     3.971000000     3.045000000    -2.746000000
H     5.284000000     3.187000000    -3.485000000
O     1.678000000     4.125000000    -2.008000000
H     0.742000000     3.965000000    -1.888000000
H     1.729000000     5.028000000    -2.320000000
O    -2.027000000     3.879000000     2.631000000
H    -2.400000000     3.042000000     2.354000000
H    -1.570000000     4.205000000     1.856000000
O     4.790000000    -2.658000000    -3.586000000
H     4.245000000    -2.724000000    -4.369000000
H     4.383000000    -1.965000000    -3.068000000
