144
-2795.79427
O     1.120000000     1.806000000     6.372000000
H     1.144000000     2.252000000     5.525000000
H     1.325000000     2.490000000     7.009000000
O     2.140000000    -5.678000000    -0.240000000
H     1.915000000    -4.948000000     0.337000000
H     2.197000000    -5.287000000    -1.111000000
O     1.355000000     5.754000000     4.532000000
H     0.506000000     6.159000000     4.708000000
H     1.399000000     5.697000000     3.577000000
O     2.030000000    -2.517000000     3.163000000
H     2.820000000    -2.848000000     2.735000000
H     2.302000000    -1.689000000     3.559000000
O    -3.520000000     2.630000000     6.004000000
H    -2.711000000     2.304000000     6.399000000
H    -3.676000000     2.045000000     5.262000000
O    -3.648000000    -4.159000000     0.363000000
H    -4.547000000    -3.832000000     0.374000000
H    -3.138000000    -3.445000000    -0.020000000
O     0.154000000     2.852000000     4.137000000
H     0.193000000     3.780000000     3.904000000
H    -0.611000000     2.519000000     3.668000000
O    -3.899000000     0.176000000    -0.248000000
H    -3.447000000    -0.407000000     0.361000000
H    -4.146000000     0.933000000     0.284000000
O     2.985000000    -4.504000000    -2.706000000
H     2.372000000    -4.702000000    -3.414000000
H     3.622000000    -5.217000000    -2.735000000
O     4.210000000     0.483000000    -4.779000000
H     3.780000000    -0.250000000    -5.219000000
H     4.669000000     0.083000000    -4.040000000
O     1.070000000     5.457000000     1.862000000
H     0.784000000     4.764000000     1.266000000
H     1.821000000     5.855000000     1.422000000
O    -3.646000000     3.082000000     0.121000000
H    -3.004000000     3.022000000    -0.586000000
H    -3.120000000     3.155000000     0.918000000
O    -5.381000000    -0.615000000     5.552000000
H    -5.640000000    -1.389000000     5.052000000
H    -4.635000000    -0.258000000     5.070000000
O     2.190000000    -6.569000000     3.136000000
H     2.153000000    -6.039000000     2.340000000
H     3.099000000    -6.868000000     3.183000000
O    -2.450000000    -2.106000000    -1.713000000
H    -1.577000000    -2.184000000    -1.331000000
H    -2.649000000    -1.171000000    -1.666000000
O     2.958000000    -1.666000000    -5.680000000
H     2.580000000    -1.373000000    -6.509000000
H     3.661000000    -2.264000000    -5.936000000
O     3.652000000     4.600000000     2.094000000
H     2.986000000     4.077000000     1.648000000
H     4.255000000     4.863000000     1.399000000
O     0.633000000    -4.318000000     1.779000000
H     0.935000000    -3.493000000     2.157000000
H    -0.305000000    -4.340000000     1.969000000
O     3.101000000     4.008000000    -4.104000000
H     2.152000000     3.908000000    -4.027000000
H     3.231000000     4.412000000    -4.962000000
O    -1.349000000     4.735000000    -1.613000000
H    -1.111000000     4.397000000    -0.750000000
H    -0.736000000     4.309000000    -2.213000000
O    -2.617000000    -6.372000000     1.535000000
H    -2.882000000    -5.520000000     1.190000000
H    -3.430000000    -6.766000000     1.851000000
O     1.105000000    -5.791000000    -4.826000000
H     1.149000000    -5.413000000    -5.705000000
H     1.737000000    -6.510000000    -4.844000000
O    -1.695000000    -2.255000000    -4.466000000
H    -2.048000000    -3.138000000    -4.575000000
H    -2.080000000    -1.943000000    -3.647000000
O    -0.650000000     8.164000000     3.056000000
H     0.067000000     8.297000000     2.437000000
H    -1.127000000     7.409000000     2.711000000
O     5.201000000    -4.991000000     1.609000000
H     6.106000000    -4.897000000     1.312000000
H     4.797000000    -4.145000000     1.417000000
O    -2.801000000    -0.745000000     6.915000000
H    -2.068000000    -0.460000000     6.368000000
H    -2.409000000    -1.353000000     7.542000000
O     0.287000000     4.014000000    -3.478000000
H    -0.153000000     4.367000000    -4.251000000
H     0.035000000     3.091000000    -3.458000000
O     2.325000000     1.944000000    -6.040000000
H     1.923000000     1.779000000    -5.187000000
H     3.195000000     1.550000000    -5.975000000
O    -4.967000000     5.423000000     2.331000000
H    -4.919000000     5.381000000     1.376000000
H    -5.340000000     6.286000000     2.515000000
O     4.494000000    -2.172000000    -2.181000000
H     3.907000000    -2.809000000    -2.589000000
H     4.573000000    -2.466000000    -1.274000000
O    -6.203000000     2.675000000     0.225000000
H    -5.305000000     2.899000000    -0.019000000
H    -6.697000000     3.484000000     0.088000000
O     2.151000000     0.619000000     3.615000000
H     1.521000000     1.339000000     3.579000000
H     2.221000000     0.408000000     4.546000000
O    -0.801000000     1.576000000    -4.017000000
H    -1.540000000     1.277000000    -3.488000000
H    -0.310000000     0.778000000    -4.215000000
O    -6.126000000     3.092000000     3.065000000
H    -6.449000000     2.887000000     2.187000000
H    -5.635000000     3.906000000     2.955000000
O     5.102000000    -2.205000000     1.169000000
H     5.906000000    -2.319000000     1.676000000
H     5.261000000    -1.424000000     0.639000000
O     3.221000000     4.637000000    -1.029000000
H     2.534000000     4.774000000    -1.681000000
H     3.643000000     5.492000000    -0.942000000
O    -0.848000000    -1.251000000     4.730000000
H    -1.143000000    -2.161000000     4.681000000
H    -0.219000000    -1.164000000     4.013000000
O     0.463000000    -0.678000000    -4.904000000
H     1.228000000    -1.253000000    -4.942000000
H    -0.283000000    -1.276000000    -4.855000000
O    -2.791000000     6.844000000     4.959000000
H    -2.474000000     6.457000000     4.143000000
H    -3.229000000     7.651000000     4.687000000
O     5.739000000     0.134000000    -2.420000000
H     5.360000000    -0.744000000    -2.378000000
H     5.098000000     0.692000000    -1.980000000
O    -1.522000000     5.485000000     2.595000000
H    -0.741000000     5.364000000     2.054000000
H    -2.028000000     4.682000000     2.467000000
O    -0.399000000    -7.251000000    -0.598000000
H     0.099000000    -6.500000000    -0.273000000
H    -1.041000000    -6.870000000    -1.198000000
O    -2.118000000    -5.811000000    -2.219000000
H    -1.871000000    -5.843000000    -3.143000000
H    -2.578000000    -4.977000000    -2.123000000
O    -3.397000000    -1.357000000     2.168000000
H    -3.238000000    -2.185000000     2.621000000
H    -3.759000000    -0.781000000     2.840000000
O    -2.037000000    -3.661000000     3.151000000
H    -1.791000000    -4.391000000     3.719000000
H    -2.571000000    -4.062000000     2.464000000
O    -3.374000000     0.827000000    -2.700000000
H    -4.244000000     0.637000000    -3.053000000
H    -3.438000000     0.601000000    -1.772000000
O     3.762000000     1.802000000    -1.171000000
H     2.982000000     1.392000000    -0.797000000
H     3.452000000     2.642000000    -1.510000000
O    -3.952000000     1.147000000     3.543000000
H    -3.234000000     1.598000000     3.099000000
H    -4.670000000     1.781000000     3.542000000
