144
-2799.77190
O     1.989000000    -6.146000000     0.163000000
H     1.311000000    -6.509000000     0.733000000
H     2.359000000    -5.419000000     0.664000000
O     3.861000000     6.255000000     2.452000000
H     3.045000000     5.992000000     2.026000000
H     3.656000000     7.094000000     2.864000000
O    -6.207000000     0.094000000    -1.841000000
H    -5.807000000    -0.543000000    -1.248000000
H    -5.614000000     0.129000000    -2.591000000
O    -1.891000000     4.260000000    -2.237000000
H    -2.188000000     3.920000000    -1.393000000
H    -2.687000000     4.585000000    -2.658000000
O     2.434000000    -2.398000000    -1.062000000
H     2.189000000    -1.624000000    -0.556000000
H     3.104000000    -2.086000000    -1.670000000
O     3.257000000    -0.896000000    -3.283000000
H     4.015000000    -0.458000000    -3.670000000
H     2.960000000    -1.505000000    -3.959000000
O    -0.763000000     6.539000000     0.070000000
H    -1.225000000     7.115000000     0.679000000
H    -0.991000000     6.875000000    -0.797000000
O     2.329000000    -2.178000000    -5.281000000
H     1.660000000    -1.759000000    -5.823000000
H     1.975000000    -3.047000000    -5.093000000
O     2.192000000     2.778000000     5.623000000
H     1.293000000     2.891000000     5.932000000
H     2.122000000     2.142000000     4.911000000
O     3.118000000     5.514000000     6.641000000
H     3.567000000     5.028000000     7.333000000
H     2.447000000     4.911000000     6.322000000
O     1.930000000     5.837000000     0.592000000
H     2.074000000     5.081000000     0.024000000
H     1.044000000     6.131000000     0.382000000
O     3.168000000    -2.316000000     7.766000000
H     2.281000000    -2.030000000     7.546000000
H     3.070000000    -2.778000000     8.599000000
O     4.159000000     2.302000000     1.639000000
H     3.527000000     2.223000000     2.354000000
H     4.009000000     1.527000000     1.099000000
O     3.152000000    -4.112000000     1.335000000
H     3.060000000    -3.541000000     0.572000000
H     2.661000000    -3.669000000     2.027000000
O    -2.822000000    -4.909000000     2.812000000
H    -2.416000000    -4.528000000     2.033000000
H    -3.658000000    -5.256000000     2.500000000
O    -4.542000000    -3.355000000    -2.619000000
H    -5.433000000    -3.693000000    -2.719000000
H    -4.035000000    -3.816000000    -3.287000000
O     6.051000000     2.456000000     3.362000000
H     5.309000000     2.494000000     2.758000000
H     5.775000000     1.841000000     4.042000000
O     0.551000000    -1.559000000     7.913000000
H     0.198000000    -0.770000000     8.323000000
H    -0.002000000    -2.268000000     8.241000000
O    -0.671000000    -4.059000000    -5.956000000
H    -0.199000000    -3.800000000    -6.748000000
H    -1.339000000    -3.384000000    -5.843000000
O     4.963000000     2.634000000     6.219000000
H     4.219000000     3.010000000     6.689000000
H     4.569000000     2.018000000     5.601000000
O     4.477000000     3.496000000    -3.495000000
H     3.747000000     2.880000000    -3.554000000
H     4.587000000     3.649000000    -2.557000000
O     1.534000000    -4.681000000    -4.424000000
H     1.347000000    -4.595000000    -3.490000000
H     0.674000000    -4.769000000    -4.834000000
O    -0.388000000    -0.558000000     5.549000000
H     0.221000000    -0.589000000     6.287000000
H     0.172000000    -0.439000000     4.782000000
O    -3.403000000    -4.519000000    -4.695000000
H    -2.625000000    -4.765000000    -4.195000000
H    -3.138000000    -4.611000000    -5.611000000
O    -2.589000000     1.510000000     2.269000000
H    -2.306000000     2.246000000     1.727000000
H    -2.120000000     1.627000000     3.095000000
O    -3.598000000     1.033000000    -5.304000000
H    -3.844000000     0.838000000    -6.208000000
H    -3.520000000     1.986000000    -5.276000000
O     0.252000000    -1.326000000    -6.810000000
H    -0.574000000    -1.656000000    -7.163000000
H     0.041000000    -0.450000000    -6.487000000
O    -5.052000000    -1.102000000    -4.263000000
H    -4.336000000    -0.498000000    -4.457000000
H    -4.728000000    -1.633000000    -3.536000000
O    -1.301000000    -5.044000000     5.163000000
H    -0.446000000    -5.095000000     4.735000000
H    -1.924000000    -4.952000000     4.443000000
O    -5.639000000    -2.039000000     2.085000000
H    -4.708000000    -2.197000000     1.927000000
H    -5.959000000    -2.857000000     2.467000000
O    -1.559000000     5.286000000     2.602000000
H    -0.661000000     5.027000000     2.808000000
H    -1.672000000     5.049000000     1.682000000
O    -4.134000000    -1.496000000    -0.770000000
H    -4.413000000    -2.290000000    -1.225000000
H    -3.271000000    -1.712000000    -0.417000000
O     2.459000000     1.721000000    -3.730000000
H     2.117000000     0.899000000    -3.378000000
H     1.704000000     2.309000000    -3.742000000
O     4.214000000    -0.196000000     0.512000000
H     4.518000000    -0.479000000    -0.350000000
H     4.579000000    -0.840000000     1.118000000
O    -1.712000000    -5.625000000    -2.694000000
H    -0.809000000    -5.382000000    -2.489000000
H    -1.720000000    -6.581000000    -2.641000000
O    -2.289000000    -2.582000000     5.833000000
H    -1.657000000    -1.915000000     5.565000000
H    -1.832000000    -3.413000000     5.699000000
O    -3.012000000    -1.283000000     2.220000000
H    -3.168000000    -1.056000000     3.137000000
H    -2.633000000    -0.491000000     1.839000000
O    -1.129000000     1.952000000     4.441000000
H    -0.472000000     2.632000000     4.591000000
H    -0.707000000     1.144000000     4.733000000
O    -2.539000000    -4.589000000     0.034000000
H    -2.141000000    -4.506000000    -0.832000000
H    -3.408000000    -4.953000000    -0.135000000
O     0.878000000     4.196000000     2.849000000
H     1.033000000     3.269000000     3.030000000
H     1.649000000     4.475000000     2.355000000
O    -3.491000000     3.269000000    -0.122000000
H    -3.311000000     2.342000000    -0.275000000
H    -4.445000000     3.336000000    -0.148000000
O     3.106000000    -2.228000000     3.308000000
H     2.297000000    -1.738000000     3.159000000
H     3.640000000    -1.649000000     3.851000000
O     0.790000000    -4.460000000    -1.806000000
H     1.139000000    -3.580000000    -1.660000000
H     1.160000000    -4.985000000    -1.097000000
O    -0.882000000     1.119000000    -6.464000000
H    -0.343000000     1.876000000    -6.235000000
H    -1.724000000     1.287000000    -6.040000000
O     1.668000000    -4.283000000     4.517000000
H     2.443000000    -4.721000000     4.165000000
H     1.815000000    -3.355000000     4.335000000
O     3.977000000     0.595000000     4.563000000
H     3.241000000     0.134000000     4.160000000
H     4.304000000    -0.011000000     5.228000000
O     5.585000000     3.071000000    -0.710000000
H     5.016000000     2.861000000     0.030000000
H     5.930000000     2.225000000    -0.994000000
O     0.289000000     3.610000000    -3.887000000
H     0.023000000     4.192000000    -4.599000000
H    -0.410000000     3.691000000    -3.237000000
