144
-2809.98144
O     4.581000000     2.014000000    -2.094000000
H     4.015000000     1.815000000    -1.347000000
H     4.098000000     2.673000000    -2.591000000
O    -5.761000000    -1.536000000    -1.627000000
H    -5.355000000    -2.324000000    -1.267000000
H    -5.274000000    -0.813000000    -1.230000000
O     0.296000000     3.809000000     1.525000000
H     0.779000000     4.589000000     1.252000000
H     0.716000000     3.541000000     2.343000000
O     6.310000000     5.677000000     0.310000000
H     5.765000000     4.971000000     0.659000000
H     6.005000000     5.790000000    -0.591000000
O     0.143000000    -3.170000000    -0.775000000
H     0.155000000    -2.223000000    -0.911000000
H     1.062000000    -3.404000000    -0.643000000
O     5.941000000     5.033000000     4.005000000
H     5.078000000     5.416000000     4.162000000
H     5.904000000     4.722000000     3.101000000
O    -0.571000000    -3.326000000     2.047000000
H     0.328000000    -3.639000000     2.150000000
H    -0.549000000    -2.793000000     1.252000000
O     3.099000000     5.267000000     4.241000000
H     2.391000000     5.466000000     4.854000000
H     2.891000000     4.393000000     3.910000000
O     5.332000000     1.910000000     2.490000000
H     5.635000000     1.649000000     1.620000000
H     4.395000000     1.712000000     2.486000000
O     2.734000000     3.512000000    -3.745000000
H     3.264000000     3.478000000    -4.541000000
H     1.877000000     3.818000000    -4.041000000
O     5.038000000    -1.334000000     4.066000000
H     5.376000000    -0.754000000     3.383000000
H     5.816000000    -1.757000000     4.427000000
O     4.271000000     4.554000000     1.308000000
H     4.373000000     3.643000000     1.583000000
H     3.748000000     4.506000000     0.508000000
O     0.641000000    -0.775000000    -6.615000000
H     1.191000000    -0.460000000    -5.898000000
H     0.310000000     0.021000000    -7.030000000
O     2.363000000    -1.143000000     3.864000000
H     3.136000000    -1.134000000     4.427000000
H     2.504000000    -0.420000000     3.252000000
O     1.803000000     6.140000000     1.559000000
H     1.769000000     6.756000000     2.292000000
H     2.634000000     5.679000000     1.672000000
O     3.730000000    -2.094000000    -4.205000000
H     4.314000000    -2.318000000    -4.930000000
H     3.391000000    -1.227000000    -4.429000000
O    -2.163000000    -4.862000000     0.135000000
H    -2.591000000    -5.034000000    -0.704000000
H    -1.419000000    -4.300000000    -0.086000000
O    -0.164000000    -0.501000000     4.833000000
H     0.746000000    -0.636000000     4.569000000
H    -0.484000000    -1.377000000     5.048000000
O    -5.564000000     0.756000000    -0.358000000
H    -5.757000000     0.850000000     0.575000000
H    -5.616000000     1.648000000    -0.703000000
O     5.997000000     0.695000000    -4.164000000
H     5.572000000     0.973000000    -3.353000000
H     6.335000000     1.505000000    -4.547000000
O     4.865000000     1.076000000     5.473000000
H     4.789000000     1.332000000     4.554000000
H     4.958000000     0.123000000     5.449000000
O     2.745000000     4.477000000    -1.006000000
H     1.890000000     4.898000000    -1.088000000
H     2.875000000     4.033000000    -1.844000000
O     0.251000000     5.338000000    -1.203000000
H    -0.325000000     5.698000000    -0.527000000
H    -0.077000000     4.450000000    -1.348000000
O    -1.265000000    -2.708000000    -6.691000000
H    -1.683000000    -2.609000000    -7.547000000
H    -0.569000000    -2.051000000    -6.686000000
O    -7.906000000    -0.969000000    -2.943000000
H    -7.127000000    -0.971000000    -2.387000000
H    -8.620000000    -1.218000000    -2.355000000
O    -2.287000000     3.915000000    -2.784000000
H    -2.011000000     3.393000000    -2.031000000
H    -2.425000000     4.794000000    -2.429000000
O     2.111000000    -3.578000000     2.611000000
H     2.224000000    -2.716000000     3.011000000
H     1.865000000    -4.150000000     3.338000000
O    -2.401000000     3.112000000    -5.325000000
H    -2.069000000     2.898000000    -4.453000000
H    -2.444000000     4.068000000    -5.337000000
O    -0.971000000     2.771000000    -0.622000000
H    -1.036000000     2.942000000     0.318000000
H    -0.462000000     1.963000000    -0.684000000
O    -1.309000000     5.020000000     3.927000000
H    -1.469000000     4.079000000     3.993000000
H    -0.543000000     5.172000000     4.480000000
O    -4.322000000    -5.838000000     1.424000000
H    -3.528000000    -5.585000000     0.953000000
H    -4.269000000    -5.363000000     2.254000000
O     7.605000000     2.682000000     3.675000000
H     6.819000000     2.377000000     3.222000000
H     7.368000000     3.547000000     4.009000000
O    -0.801000000    -3.330000000    -3.850000000
H    -1.111000000    -2.589000000    -4.372000000
H    -1.569000000    -3.610000000    -3.352000000
O     5.331000000     5.618000000    -2.151000000
H     4.396000000     5.413000000    -2.142000000
H     5.752000000     4.805000000    -2.431000000
O    -1.809000000    -2.901000000     4.578000000
H    -1.856000000    -3.831000000     4.801000000
H    -1.552000000    -2.888000000     3.656000000
O    -1.150000000     1.965000000     4.158000000
H    -1.929000000     2.000000000     3.604000000
H    -1.028000000     1.033000000     4.341000000
O     1.521000000     2.844000000     4.060000000
H     0.589000000     2.680000000     4.202000000
H     1.858000000     2.021000000     3.708000000
O     1.724000000    -4.656000000    -3.883000000
H     1.903000000    -3.759000000    -3.601000000
H     0.768000000    -4.719000000    -3.887000000
O    -3.170000000     2.247000000     2.480000000
H    -3.091000000     3.006000000     1.903000000
H    -3.411000000     1.527000000     1.897000000
O     2.778000000    -3.958000000    -0.098000000
H     2.693000000    -4.004000000     0.855000000
H     3.344000000    -3.200000000    -0.251000000
O     2.117000000     3.313000000     6.825000000
H     2.023000000     4.266000000     6.844000000
H     1.986000000     3.078000000     5.907000000
O     4.225000000    -1.934000000    -1.283000000
H     3.987000000    -1.768000000    -2.195000000
H     4.925000000    -2.585000000    -1.333000000
O     5.700000000     0.076000000    -0.183000000
H     5.017000000     0.747000000    -0.173000000
H     5.246000000    -0.723000000    -0.450000000
O     2.217000000     0.590000000    -4.640000000
H     2.171000000     1.339000000    -5.234000000
H     2.633000000     0.936000000    -3.850000000
O    -5.249000000     2.210000000     4.403000000
H    -4.596000000     2.218000000     3.704000000
H    -5.706000000     3.046000000     4.314000000
O    -3.357000000    -3.692000000    -2.566000000
H    -3.913000000    -4.102000000    -3.230000000
H    -3.972000000    -3.264000000    -1.970000000
O     8.396000000     0.187000000     0.585000000
H     8.788000000    -0.605000000     0.217000000
H     7.462000000     0.104000000     0.391000000
O    -4.882000000    -3.269000000     0.120000000
H    -5.664000000    -3.777000000     0.338000000
H    -4.156000000    -3.790000000     0.463000000
