144
-2821.28693
O     3.748000000    -0.778000000    -2.724000000
H     4.422000000    -0.120000000    -2.896000000
H     3.085000000    -0.623000000    -3.396000000
O    -4.834000000     1.149000000     3.242000000
H    -5.620000000     1.557000000     3.605000000
H    -4.413000000     0.729000000     3.993000000
O     2.159000000     3.278000000     4.044000000
H     1.770000000     2.430000000     4.258000000
H     1.451000000     3.908000000     4.182000000
O    -1.469000000    -3.925000000    -3.300000000
H    -1.574000000    -4.809000000    -3.654000000
H    -2.007000000    -3.919000000    -2.509000000
O     2.851000000     3.778000000     1.570000000
H     2.066000000     3.482000000     1.109000000
H     2.618000000     3.730000000     2.497000000
O    -7.635000000    -0.404000000     0.899000000
H    -7.966000000    -0.279000000     1.788000000
H    -6.707000000    -0.177000000     0.954000000
O     0.751000000    -4.497000000    -1.431000000
H     0.630000000    -4.093000000    -0.571000000
H    -0.110000000    -4.443000000    -1.845000000
O     2.514000000    -2.149000000     4.346000000
H     2.703000000    -2.629000000     3.540000000
H     1.918000000    -1.450000000     4.074000000
O     1.411000000     2.346000000     7.309000000
H     2.313000000     2.664000000     7.349000000
H     1.397000000     1.589000000     7.894000000
O    -4.927000000    -1.679000000    -3.118000000
H    -4.774000000    -2.481000000    -3.618000000
H    -5.743000000    -1.328000000    -3.474000000
O    -2.228000000     2.910000000     4.566000000
H    -1.568000000     2.264000000     4.817000000
H    -2.226000000     2.896000000     3.609000000
O    -2.527000000    -4.094000000     1.846000000
H    -2.771000000    -4.662000000     2.577000000
H    -3.131000000    -3.353000000     1.907000000
O     1.804000000    -0.261000000    -4.575000000
H     0.876000000    -0.029000000    -4.550000000
H     2.250000000     0.559000000    -4.788000000
O     6.184000000    -3.306000000     4.253000000
H     5.715000000    -4.009000000     3.803000000
H     5.922000000    -2.509000000     3.791000000
O     5.500000000     2.364000000    -2.594000000
H     5.477000000     2.218000000    -1.648000000
H     4.606000000     2.619000000    -2.819000000
O     6.609000000    -0.213000000     5.105000000
H     6.912000000     0.586000000     5.536000000
H     5.656000000    -0.183000000     5.188000000
O    -3.309000000     0.048000000    -5.148000000
H    -3.728000000     0.751000000    -4.651000000
H    -3.938000000    -0.166000000    -5.837000000
O    -1.954000000     5.253000000    -2.437000000
H    -1.341000000     4.655000000    -2.865000000
H    -1.419000000     5.733000000    -1.805000000
O    -0.663000000     0.676000000    -5.128000000
H    -1.494000000     0.203000000    -5.100000000
H    -0.602000000     1.001000000    -6.027000000
O     4.014000000     0.814000000     5.135000000
H     4.342000000     1.604000000     4.706000000
H     3.301000000     0.514000000     4.571000000
O    -4.447000000    -2.019000000     1.796000000
H    -4.192000000    -1.126000000     1.564000000
H    -5.126000000    -1.909000000     2.461000000
O     2.201000000    -2.102000000    -6.708000000
H     2.874000000    -2.708000000    -6.398000000
H     1.913000000    -1.640000000    -5.921000000
O    -2.774000000     2.865000000     1.875000000
H    -3.140000000     3.256000000     1.082000000
H    -3.443000000     2.245000000     2.166000000
O    -0.197000000    -3.150000000     0.757000000
H    -0.178000000    -2.196000000     0.824000000
H    -0.946000000    -3.413000000     1.293000000
O     4.094000000    -0.023000000     7.755000000
H     3.509000000    -0.734000000     8.015000000
H     3.988000000     0.040000000     6.806000000
O    -5.051000000    -0.102000000    -0.366000000
H    -5.210000000    -0.797000000    -1.005000000
H    -4.900000000     0.681000000    -0.896000000
O    -3.490000000     0.185000000     5.429000000
H    -2.606000000     0.220000000     5.793000000
H    -4.065000000     0.243000000     6.192000000
O     7.396000000     2.359000000     4.395000000
H     7.195000000     3.228000000     4.743000000
H     6.627000000     2.126000000     3.874000000
O     2.987000000     3.950000000    -3.261000000
H     2.867000000     3.471000000    -4.080000000
H     2.113000000     3.980000000    -2.871000000
O     1.307000000    -4.642000000    -4.316000000
H     1.231000000    -4.439000000    -3.383000000
H     0.425000000    -4.510000000    -4.662000000
O     5.122000000    -1.247000000     2.639000000
H     4.271000000    -0.820000000     2.537000000
H     5.624000000    -0.651000000     3.194000000
O    -1.716000000    -2.125000000     6.392000000
H    -1.336000000    -2.107000000     5.513000000
H    -0.965000000    -2.034000000     6.979000000
O     0.768000000     3.958000000    -1.708000000
H     0.607000000     3.699000000    -0.800000000
H     0.182000000     3.404000000    -2.223000000
O     0.161000000     3.491000000     0.871000000
H     0.032000000     4.151000000     1.553000000
H    -0.455000000     2.793000000     1.093000000
O     3.269000000    -2.539000000     6.872000000
H     3.192000000    -2.347000000     5.938000000
H     4.200000000    -2.717000000     7.005000000
O    -2.684000000    -4.597000000    -0.882000000
H    -2.517000000    -4.511000000     0.057000000
H    -3.632000000    -4.716000000    -0.946000000
O     6.279000000    -2.892000000     0.688000000
H     5.888000000    -2.340000000     1.364000000
H     5.948000000    -2.534000000    -0.136000000
O    -2.662000000    -2.661000000    -5.197000000
H    -2.719000000    -1.740000000    -4.942000000
H    -2.188000000    -3.080000000    -4.479000000
O    -0.602000000    -3.267000000    -7.089000000
H    -1.258000000    -3.042000000    -6.430000000
H    -0.033000000    -2.498000000    -7.133000000
O     3.924000000     3.563000000     6.551000000
H     3.418000000     3.393000000     5.756000000
H     3.823000000     4.502000000     6.704000000
O     4.900000000     2.147000000     2.790000000
H     4.777000000     2.835000000     2.137000000
H     4.187000000     1.530000000     2.624000000
O     4.983000000    -3.252000000    -1.899000000
H     5.760000000    -2.876000000    -2.311000000
H     4.295000000    -2.604000000    -2.048000000
O    -0.467000000     0.851000000     5.145000000
H    -0.077000000     0.532000000     5.959000000
H     0.186000000     0.656000000     4.473000000
O     2.294000000    -3.791000000     2.094000000
H     2.679000000    -3.887000000     1.223000000
H     1.404000000    -3.481000000     1.929000000
O    -3.919000000     2.400000000    -3.048000000
H    -3.916000000     3.343000000    -3.207000000
H    -4.765000000     2.103000000    -3.385000000
O    -5.170000000    -3.403000000    -0.479000000
H    -4.971000000    -2.798000000    -1.194000000
H    -4.860000000    -2.954000000     0.308000000
O     5.151000000     1.315000000    -0.039000000
H     5.942000000     1.349000000     0.499000000
H     4.600000000     0.658000000     0.387000000
O    -0.962000000     2.759000000    -3.432000000
H    -0.611000000     2.177000000    -4.106000000
H    -1.878000000     2.495000000    -3.341000000
