144
-2812.88015
O    -6.653000000    -2.501000000     3.773000000
H    -6.308000000    -1.611000000     3.846000000
H    -5.876000000    -3.054000000     3.691000000
O    -0.608000000    -6.662000000     2.002000000
H    -0.389000000    -5.887000000     1.485000000
H    -0.838000000    -6.317000000     2.865000000
O     3.575000000    -0.467000000    -5.642000000
H     3.978000000    -0.487000000    -4.775000000
H     2.636000000    -0.542000000    -5.471000000
O    -5.601000000    -1.768000000    -0.210000000
H    -5.882000000    -2.677000000    -0.106000000
H    -5.173000000    -1.745000000    -1.065000000
O    -0.050000000     4.480000000     1.354000000
H    -0.569000000     3.741000000     1.672000000
H    -0.653000000     4.976000000     0.801000000
O     5.523000000     5.398000000    -1.531000000
H     4.697000000     5.290000000    -2.002000000
H     5.533000000     4.682000000    -0.897000000
O    -8.119000000    -1.140000000    -1.495000000
H    -7.797000000    -0.246000000    -1.384000000
H    -7.724000000    -1.629000000    -0.773000000
O    -0.491000000    -4.528000000    -3.192000000
H    -1.211000000    -4.755000000    -2.604000000
H     0.287000000    -4.898000000    -2.774000000
O     1.330000000    -3.020000000    -0.847000000
H     0.744000000    -2.280000000    -1.007000000
H     2.209000000    -2.659000000    -0.962000000
O     5.103000000    -1.281000000     0.068000000
H     4.546000000    -1.696000000    -0.591000000
H     4.563000000    -0.579000000     0.431000000
O    -4.977000000     2.248000000    -0.095000000
H    -5.364000000     1.548000000     0.430000000
H    -4.720000000     2.913000000     0.544000000
O    -0.829000000    -1.267000000     4.771000000
H    -1.063000000    -1.611000000     5.633000000
H    -0.357000000    -1.984000000     4.347000000
O     1.591000000     4.281000000     3.736000000
H     1.274000000     4.467000000     2.852000000
H     1.438000000     3.344000000     3.854000000
O    -6.309000000    -4.439000000    -0.260000000
H    -5.801000000    -5.250000000    -0.245000000
H    -7.171000000    -4.689000000     0.073000000
O     0.801000000    -0.978000000    -5.219000000
H     0.357000000    -1.749000000    -5.572000000
H     0.104000000    -0.333000000    -5.102000000
O     7.070000000     0.793000000    -1.479000000
H     7.427000000    -0.019000000    -1.120000000
H     6.959000000     0.614000000    -2.413000000
O     7.328000000     0.981000000     2.338000000
H     8.077000000     1.541000000     2.544000000
H     7.495000000     0.677000000     1.446000000
O     2.252000000    -4.405000000     1.811000000
H     1.332000000    -4.334000000     2.066000000
H     2.257000000    -5.063000000     1.115000000
O     4.656000000     1.260000000     3.236000000
H     5.532000000     1.211000000     2.854000000
H     4.070000000     1.323000000     2.482000000
O     2.772000000     6.227000000     1.777000000
H     2.302000000     5.781000000     1.073000000
H     3.600000000     5.754000000     1.851000000
O     0.756000000     1.370000000     4.657000000
H     0.517000000     0.445000000     4.715000000
H     1.072000000     1.591000000     5.533000000
O    -1.406000000     2.194000000     2.140000000
H    -2.067000000     1.738000000     1.619000000
H    -0.659000000     1.595000000     2.156000000
O    -0.580000000    -4.579000000     0.410000000
H    -1.351000000    -4.795000000    -0.116000000
H     0.015000000    -4.149000000    -0.203000000
O    -1.894000000     4.045000000    -3.340000000
H    -1.584000000     3.950000000    -4.241000000
H    -2.313000000     3.208000000    -3.141000000
O    -3.611000000    -3.695000000     4.669000000
H    -4.185000000    -4.446000000     4.524000000
H    -3.230000000    -3.515000000     3.810000000
O    -6.148000000     0.125000000     1.720000000
H    -5.964000000    -0.620000000     1.148000000
H    -7.101000000     0.213000000     1.699000000
O    -2.948000000     0.257000000     5.448000000
H    -2.723000000    -0.138000000     6.290000000
H    -2.317000000    -0.116000000     4.832000000
O    -0.809000000    -5.346000000     4.411000000
H    -1.382000000    -4.786000000     3.887000000
H    -0.897000000    -5.011000000     5.303000000
O     5.539000000     1.858000000    -4.871000000
H     5.188000000     1.027000000    -4.548000000
H     4.993000000     2.526000000    -4.456000000
O    -3.504000000     1.897000000    -2.665000000
H    -3.885000000     2.064000000    -1.803000000
H    -4.258000000     1.746000000    -3.235000000
O     7.975000000    -1.139000000     0.323000000
H     7.033000000    -1.188000000     0.157000000
H     8.321000000    -1.963000000    -0.019000000
O     2.317000000    -2.421000000     5.625000000
H     2.849000000    -3.032000000     5.116000000
H     2.550000000    -1.558000000     5.283000000
O     3.695000000     3.086000000    -3.184000000
H     3.247000000     2.605000000    -2.488000000
H     3.372000000     3.984000000    -3.100000000
O     3.828000000    -2.638000000    -1.956000000
H     4.093000000    -3.491000000    -1.612000000
H     3.575000000    -2.814000000    -2.862000000
O     4.191000000    -0.375000000     5.385000000
H     4.897000000    -1.010000000     5.259000000
H     4.398000000     0.336000000     4.779000000
O     3.832000000    -2.480000000     2.868000000
H     4.219000000    -1.873000000     2.238000000
H     3.401000000    -3.143000000     2.328000000
O    -2.792000000    -3.909000000     2.172000000
H    -1.916000000    -3.879000000     1.788000000
H    -3.278000000    -4.515000000     1.613000000
O     5.383000000     3.674000000     4.547000000
H     5.140000000     2.819000000     4.192000000
H     5.363000000     4.262000000     3.792000000
O     5.317000000     4.815000000     2.015000000
H     5.257000000     4.129000000     1.350000000
H     6.038000000     5.372000000     1.720000000
O    -4.490000000     3.453000000     2.475000000
H    -4.207000000     4.308000000     2.151000000
H    -3.675000000     2.980000000     2.645000000
O    -5.606000000     0.195000000     4.692000000
H    -4.656000000     0.139000000     4.797000000
H    -5.730000000     0.545000000     3.810000000
O     2.981000000    -3.471000000    -4.370000000
H     2.150000000    -3.093000000    -4.082000000
H     3.128000000    -3.095000000    -5.238000000
O     1.850000000     4.806000000    -0.506000000
H     1.046000000     4.670000000    -0.004000000
H     2.236000000     3.933000000    -0.579000000
O     4.708000000    -0.042000000    -3.280000000
H     4.577000000     0.567000000    -2.553000000
H     4.595000000    -0.909000000    -2.891000000
O    -2.480000000    -0.093000000    -4.569000000
H    -2.858000000     0.457000000    -3.884000000
H    -2.978000000     0.127000000    -5.356000000
O    -2.753000000    -4.778000000    -1.395000000
H    -3.383000000    -4.063000000    -1.485000000
H    -3.105000000    -5.477000000    -1.946000000
O     5.393000000     3.036000000    -0.326000000
H     4.612000000     2.482000000    -0.347000000
H     6.113000000     2.443000000    -0.542000000
O    -3.939000000    -2.493000000    -3.024000000
H    -4.257000000    -3.120000000    -3.674000000
H    -3.151000000    -2.119000000    -3.417000000
