144
-2776.28112
O    -6.278000000     2.690000000    -2.145000000
H    -6.883000000     2.591000000    -1.410000000
H    -6.361000000     1.873000000    -2.636000000
O     2.247000000     6.177000000     1.380000000
H     1.879000000     5.309000000     1.546000000
H     1.609000000     6.603000000     0.808000000
O     2.244000000     4.089000000    -1.559000000
H     2.235000000     3.532000000    -2.337000000
H     3.105000000     3.940000000    -1.168000000
O     6.976000000    -2.768000000    -0.778000000
H     7.569000000    -2.209000000    -0.275000000
H     6.295000000    -3.018000000    -0.154000000
O     4.163000000     3.309000000     1.687000000
H     5.003000000     3.235000000     2.139000000
H     3.594000000     2.684000000     2.135000000
O     3.690000000    -5.738000000    -0.836000000
H     4.172000000    -4.959000000    -0.559000000
H     2.798000000    -5.593000000    -0.522000000
O    -3.649000000     1.582000000    -6.870000000
H    -3.861000000     1.406000000    -5.953000000
H    -4.480000000     1.852000000    -7.260000000
O    -5.145000000     0.055000000    -4.703000000
H    -5.956000000     0.373000000    -4.305000000
H    -4.706000000    -0.426000000    -4.002000000
O    -1.758000000    -4.925000000     0.006000000
H    -1.908000000    -4.478000000    -0.827000000
H    -2.635000000    -5.089000000     0.352000000
O    -4.459000000    -2.635000000    -2.228000000
H    -3.631000000    -3.069000000    -2.022000000
H    -4.922000000    -2.593000000    -1.391000000
O     0.912000000    -1.736000000    -4.923000000
H     1.624000000    -2.311000000    -4.643000000
H     0.799000000    -1.123000000    -4.196000000
O     2.053000000     2.187000000     3.199000000
H     2.320000000     1.644000000     3.941000000
H     1.117000000     2.013000000     3.099000000
O     5.565000000    -0.356000000     2.541000000
H     5.512000000     0.569000000     2.781000000
H     4.890000000    -0.469000000     1.872000000
O     1.679000000    -5.160000000     4.546000000
H     0.805000000    -4.771000000     4.560000000
H     1.965000000    -5.139000000     5.459000000
O    -0.244000000     4.637000000    -0.835000000
H     0.523000000     4.137000000    -1.117000000
H    -0.270000000     4.519000000     0.115000000
O     0.272000000     0.182000000    -3.196000000
H     0.550000000     0.494000000    -2.335000000
H    -0.199000000     0.922000000    -3.579000000
O     7.995000000     0.367000000    -1.261000000
H     7.093000000     0.620000000    -1.461000000
H     7.987000000     0.176000000    -0.323000000
O     5.251000000     2.299000000    -3.411000000
H     4.297000000     2.376000000    -3.422000000
H     5.453000000     1.942000000    -2.547000000
O     0.139000000     4.210000000     1.889000000
H    -0.311000000     4.603000000     2.637000000
H     0.756000000     3.591000000     2.279000000
O    -1.125000000     2.651000000    -3.993000000
H    -1.709000000     3.387000000    -3.811000000
H    -1.392000000     2.341000000    -4.858000000
O     3.808000000     0.741000000     5.082000000
H     4.366000000     1.462000000     4.792000000
H     4.151000000     0.503000000     5.943000000
O    -1.372000000    -3.260000000    -2.460000000
H    -0.525000000    -3.555000000    -2.794000000
H    -1.235000000    -2.339000000    -2.238000000
O    -3.366000000     3.507000000     3.045000000
H    -4.146000000     3.088000000     2.681000000
H    -2.738000000     2.792000000     3.153000000
O     8.063000000    -1.068000000     1.334000000
H     8.544000000    -1.759000000     1.791000000
H     7.327000000    -0.866000000     1.912000000
O     0.943000000    -5.952000000    -0.008000000
H     0.139000000    -5.565000000    -0.354000000
H     1.147000000    -5.429000000     0.767000000
O    -1.173000000    -3.271000000     2.799000000
H    -0.974000000    -3.937000000     2.141000000
H    -0.901000000    -3.665000000     3.628000000
O     3.471000000    -1.835000000     4.334000000
H     3.403000000    -0.950000000     4.693000000
H     3.300000000    -1.728000000     3.398000000
O    -5.700000000    -3.040000000     0.311000000
H    -6.208000000    -2.242000000     0.163000000
H    -5.037000000    -2.786000000     0.953000000
O     6.393000000    -1.181000000     4.980000000
H     5.888000000    -0.882000000     4.224000000
H     6.123000000    -0.600000000     5.692000000
O    -0.786000000     5.705000000    -3.273000000
H    -0.797000000     5.198000000    -2.462000000
H    -1.527000000     5.368000000    -3.777000000
O    -5.944000000    -0.075000000     3.157000000
H    -6.604000000     0.083000000     3.832000000
H    -5.123000000     0.221000000     3.551000000
O     4.520000000    -3.786000000     0.677000000
H     4.607000000    -4.217000000     1.527000000
H     3.953000000    -3.034000000     0.846000000
O    -5.154000000    -2.325000000     4.442000000
H    -4.692000000    -2.537000000     3.631000000
H    -5.383000000    -1.400000000     4.353000000
O     5.664000000    -1.751000000    -3.507000000
H     6.273000000    -1.184000000    -3.980000000
H     6.142000000    -2.013000000    -2.720000000
O     4.511000000    -4.426000000     3.754000000
H     4.024000000    -3.634000000     3.982000000
H     5.345000000    -4.335000000     4.214000000
O    -3.306000000     7.144000000    -0.909000000
H    -3.207000000     6.193000000    -0.863000000
H    -4.238000000     7.296000000    -0.752000000
O    -0.688000000     1.163000000     2.904000000
H    -0.692000000     1.536000000     2.022000000
H    -0.501000000     0.234000000     2.770000000
O    -6.921000000    -0.722000000     0.356000000
H    -6.832000000     0.112000000    -0.104000000
H    -6.723000000    -0.515000000     1.269000000
O     1.640000000    -4.408000000     1.977000000
H     1.740000000    -4.844000000     2.824000000
H     2.068000000    -3.560000000     2.091000000
O    -5.611000000     2.433000000     1.702000000
H    -6.377000000     2.991000000     1.565000000
H    -5.953000000     1.666000000     2.160000000
O     3.643000000    -0.246000000    -2.256000000
H     4.239000000    -0.931000000    -2.559000000
H     3.715000000    -0.272000000    -1.302000000
O     2.041000000    -3.303000000    -1.143000000
H     1.403000000    -2.695000000    -0.768000000
H     1.520000000    -4.056000000    -1.422000000
O     0.580000000    -1.099000000     3.938000000
H    -0.243000000    -1.588000000     3.937000000
H     1.018000000    -1.370000000     4.745000000
O     5.394000000     1.672000000    -0.574000000
H     4.781000000     0.971000000    -0.354000000
H     5.366000000     2.261000000     0.181000000
O     2.533000000     2.197000000    -3.875000000
H     2.343000000     1.383000000    -3.408000000
H     2.354000000     1.993000000    -4.793000000
O    -2.999000000     4.366000000    -4.436000000
H    -3.286000000     4.665000000    -5.299000000
H    -3.698000000     4.641000000    -3.842000000
O    -3.762000000    -2.225000000     2.173000000
H    -2.833000000    -2.431000000     2.275000000
H    -3.817000000    -1.283000000     2.332000000
O    -5.508000000     5.115000000    -3.232000000
H    -5.736000000     5.768000000    -2.571000000
H    -5.718000000     4.276000000    -2.822000000
