144
-2786.06418
O    -7.390000000     0.892000000    -0.201000000
H    -8.050000000     1.520000000     0.093000000
H    -6.591000000     1.151000000     0.257000000
O     2.217000000     6.302000000     1.501000000
H     1.688000000     5.798000000     0.883000000
H     1.626000000     6.479000000     2.233000000
O     0.890000000     3.732000000    -4.019000000
H     0.028000000     3.355000000    -3.841000000
H     1.089000000     3.461000000    -4.915000000
O     7.911000000    -0.841000000     1.439000000
H     8.502000000    -1.016000000     2.171000000
H     7.039000000    -0.831000000     1.832000000
O     4.595000000     5.151000000     1.832000000
H     3.732000000     5.565000000     1.841000000
H     4.535000000     4.460000000     2.492000000
O     3.814000000     5.908000000    -1.092000000
H     2.915000000     5.653000000    -1.302000000
H     3.823000000     5.990000000    -0.138000000
O     4.191000000    -2.596000000     0.477000000
H     4.497000000    -2.041000000     1.194000000
H     3.237000000    -2.511000000     0.499000000
O    -4.467000000    -0.354000000    -4.366000000
H    -4.003000000     0.286000000    -4.906000000
H    -5.392000000    -0.210000000    -4.566000000
O     3.833000000     2.478000000    -4.011000000
H     3.837000000     1.521000000    -4.007000000
H     3.290000000     2.712000000    -4.763000000
O    -7.477000000    -0.834000000    -2.709000000
H    -7.252000000    -0.245000000    -1.989000000
H    -6.992000000    -1.638000000    -2.520000000
O    -0.458000000    -1.254000000    -5.852000000
H    -0.642000000    -2.073000000    -5.393000000
H     0.230000000    -0.837000000    -5.333000000
O     3.557000000     2.866000000     2.929000000
H     3.461000000     2.524000000     3.817000000
H     3.449000000     2.101000000     2.364000000
O     5.347000000    -1.246000000     2.679000000
H     4.778000000    -0.478000000     2.637000000
H     5.298000000    -1.530000000     3.592000000
O    -0.162000000    -1.824000000     6.188000000
H    -0.303000000    -2.753000000     6.367000000
H    -0.646000000    -1.370000000     6.877000000
O    -0.614000000     4.777000000     1.737000000
H    -0.881000000     5.070000000     0.866000000
H    -1.080000000     3.951000000     1.865000000
O     1.296000000    -0.452000000    -3.453000000
H     1.556000000    -1.211000000    -2.932000000
H     1.448000000     0.297000000    -2.877000000
O     7.741000000     1.472000000    -0.208000000
H     6.795000000     1.614000000    -0.224000000
H     7.861000000     0.725000000     0.379000000
O     3.896000000     3.057000000    -1.262000000
H     3.294000000     3.798000000    -1.190000000
H     3.790000000     2.748000000    -2.161000000
O    -1.304000000     2.004000000     2.923000000
H    -1.890000000     1.341000000     3.288000000
H    -0.814000000     1.543000000     2.243000000
O    -1.814000000     3.144000000    -4.652000000
H    -2.393000000     3.262000000    -3.899000000
H    -2.331000000     3.443000000    -5.401000000
O    -2.547000000     0.203000000    -6.777000000
H    -1.634000000    -0.042000000    -6.627000000
H    -3.044000000    -0.589000000    -6.569000000
O     3.274000000     2.382000000     5.520000000
H     2.751000000     1.594000000     5.376000000
H     4.088000000     2.062000000     5.909000000
O    -4.088000000    -4.946000000    -3.432000000
H    -3.838000000    -4.405000000    -2.683000000
H    -4.030000000    -4.356000000    -4.184000000
O     1.525000000    -3.911000000     1.075000000
H     1.037000000    -4.712000000     1.263000000
H     1.509000000    -3.421000000     1.898000000
O     1.340000000     4.259000000     3.763000000
H     0.861000000     4.370000000     2.941000000
H     2.113000000     3.749000000     3.522000000
O     1.808000000     0.150000000     5.090000000
H     1.152000000    -0.375000000     5.549000000
H     1.872000000    -0.251000000     4.223000000
O    -2.922000000    -3.824000000    -1.157000000
H    -2.778000000    -2.901000000    -1.364000000
H    -2.719000000    -3.894000000    -0.224000000
O     6.401000000    -4.498000000     2.292000000
H     7.226000000    -4.198000000     2.673000000
H     5.805000000    -3.756000000     2.397000000
O    -1.974000000     5.558000000    -0.529000000
H    -2.753000000     5.001000000    -0.542000000
H    -2.009000000     6.036000000    -1.358000000
O    -1.470000000     5.886000000    -3.529000000
H    -0.809000000     5.408000000    -4.028000000
H    -2.300000000     5.481000000    -3.781000000
O     3.905000000    -3.268000000     4.039000000
H     3.568000000    -3.048000000     4.907000000
H     3.520000000    -2.610000000     3.459000000
O    -0.651000000    -4.549000000    -2.376000000
H    -1.565000000    -4.551000000    -2.091000000
H    -0.693000000    -4.361000000    -3.314000000
O    -4.070000000    -2.902000000    -5.363000000
H    -4.140000000    -2.004000000    -5.036000000
H    -4.398000000    -2.856000000    -6.261000000
O     3.482000000    -2.294000000     6.491000000
H     2.989000000    -1.597000000     6.923000000
H     4.361000000    -1.932000000     6.377000000
O    -2.295000000    -0.187000000     4.140000000
H    -2.957000000    -0.013000000     4.810000000
H    -1.640000000    -0.725000000     4.585000000
O     0.867000000    -3.256000000     3.975000000
H     0.514000000    -2.844000000     4.763000000
H     1.315000000    -2.547000000     3.514000000
O    -5.084000000     1.077000000     1.286000000
H    -4.463000000     1.803000000     1.344000000
H    -4.534000000     0.299000000     1.193000000
O     1.095000000     5.134000000    -1.640000000
H     0.249000000     5.563000000    -1.515000000
H     1.123000000     4.924000000    -2.573000000
O     4.770000000    -0.987000000    -1.779000000
H     4.460000000    -1.629000000    -1.140000000
H     5.062000000    -0.244000000    -1.250000000
O     1.358000000    -2.410000000    -1.671000000
H     0.788000000    -3.163000000    -1.516000000
H     1.346000000    -1.927000000    -0.845000000
O    -1.506000000    -3.836000000    -4.957000000
H    -2.299000000    -3.329000000    -5.132000000
H    -1.423000000    -4.419000000    -5.712000000
O     2.619000000    -5.860000000    -0.553000000
H     2.538000000    -4.913000000    -0.441000000
H     3.368000000    -6.103000000    -0.009000000
O    -0.386000000     2.012000000    -7.585000000
H    -1.101000000     1.932000000    -8.216000000
H    -0.769000000     1.738000000    -6.752000000
O     5.136000000     0.983000000     0.103000000
H     4.389000000     0.763000000     0.660000000
H     4.876000000     1.791000000    -0.339000000
O     0.742000000    -6.046000000     3.707000000
H    -0.194000000    -6.197000000     3.574000000
H     0.820000000    -5.096000000     3.800000000
O    -3.793000000     3.522000000    -2.763000000
H    -4.155000000     4.277000000    -2.298000000
H    -4.365000000     2.794000000    -2.519000000
O    -2.316000000    -4.685000000     1.340000000
H    -1.750000000    -5.384000000     1.013000000
H    -2.320000000    -4.805000000     2.290000000
O    -5.403000000     1.326000000    -2.175000000
H    -5.466000000     0.457000000    -2.572000000
H    -5.973000000     1.280000000    -1.407000000
