144
-2823.02324
O    -3.784000000    -2.267000000     0.739000000
H    -3.963000000    -1.414000000     1.133000000
H    -4.337000000    -2.877000000     1.227000000
O     0.648000000     6.008000000     3.781000000
H     1.131000000     6.726000000     3.372000000
H     0.561000000     5.352000000     3.090000000
O    -2.470000000     2.605000000     4.871000000
H    -1.832000000     2.829000000     5.549000000
H    -3.317000000     2.661000000     5.312000000
O    -5.907000000     0.662000000    -2.639000000
H    -5.786000000     0.171000000    -1.827000000
H    -6.679000000     0.268000000    -3.045000000
O     0.155000000     2.273000000    -6.019000000
H    -0.696000000     1.841000000    -6.099000000
H     0.347000000     2.251000000    -5.082000000
O     5.177000000    -1.109000000     0.629000000
H     5.928000000    -0.675000000     1.034000000
H     4.418000000    -0.757000000     1.093000000
O     2.110000000     1.225000000    -2.093000000
H     1.606000000     0.777000000    -1.415000000
H     2.057000000     0.646000000    -2.853000000
O     1.863000000    -5.763000000     0.330000000
H     2.782000000    -5.748000000     0.064000000
H     1.706000000    -6.667000000     0.602000000
O    -2.479000000     6.677000000     2.284000000
H    -2.664000000     6.725000000     1.346000000
H    -1.885000000     5.932000000     2.374000000
O     7.501000000     0.365000000     0.831000000
H     7.899000000     0.587000000     1.672000000
H     8.179000000     0.565000000     0.185000000
O     2.429000000    -5.172000000     3.543000000
H     2.123000000    -4.663000000     2.793000000
H     2.001000000    -6.022000000     3.447000000
O    -7.174000000    -1.908000000    -3.242000000
H    -6.316000000    -2.066000000    -2.848000000
H    -7.198000000    -2.487000000    -4.004000000
O     3.060000000     5.146000000     5.465000000
H     2.320000000     5.462000000     4.946000000
H     3.079000000     4.203000000     5.307000000
O    -6.115000000     2.258000000     1.478000000
H    -5.394000000     2.469000000     0.885000000
H    -6.164000000     1.302000000     1.465000000
O    -1.347000000     0.015000000     4.908000000
H    -2.041000000    -0.636000000     5.008000000
H    -1.809000000     0.827000000     4.697000000
O     3.293000000     2.619000000     4.781000000
H     3.925000000     1.902000000     4.834000000
H     2.633000000     2.312000000     4.160000000
O     5.339000000     2.118000000     0.774000000
H     5.207000000     2.394000000     1.681000000
H     5.630000000     1.208000000     0.841000000
O    -3.015000000     5.941000000    -0.500000000
H    -3.021000000     5.160000000    -1.053000000
H    -3.919000000     6.256000000    -0.520000000
O    -0.245000000    -5.289000000    -3.984000000
H    -0.901000000    -5.921000000    -4.279000000
H    -0.324000000    -5.290000000    -3.030000000
O     1.304000000    -4.392000000    -6.027000000
H     0.846000000    -4.563000000    -5.203000000
H     1.562000000    -5.258000000    -6.341000000
O    -2.494000000     1.504000000    -5.991000000
H    -2.944000000     2.233000000    -5.565000000
H    -2.789000000     0.728000000    -5.514000000
O    -3.882000000    -3.585000000    -4.823000000
H    -3.265000000    -4.028000000    -5.405000000
H    -3.652000000    -2.658000000    -4.890000000
O    -4.213000000     2.733000000    -0.518000000
H    -4.078000000     2.763000000    -1.465000000
H    -3.407000000     3.095000000    -0.149000000
O     4.928000000    -4.356000000     1.388000000
H     4.881000000    -3.611000000     0.789000000
H     4.612000000    -4.011000000     2.224000000
O    -0.235000000     6.052000000    -0.086000000
H    -1.141000000     6.019000000    -0.392000000
H     0.011000000     5.135000000     0.035000000
O     1.221000000    -0.386000000     5.115000000
H     0.279000000    -0.368000000     4.942000000
H     1.582000000     0.292000000     4.543000000
O     7.150000000    -2.976000000     3.623000000
H     6.408000000    -2.473000000     3.287000000
H     7.858000000    -2.802000000     3.003000000
O    -2.668000000     4.199000000    -2.744000000
H    -3.134000000     4.183000000    -3.579000000
H    -1.846000000     3.742000000    -2.919000000
O     0.185000000     2.904000000     6.346000000
H     0.047000000     2.559000000     7.229000000
H     0.987000000     2.477000000     6.045000000
O     4.576000000    -2.185000000     3.483000000
H     4.037000000    -2.309000000     4.264000000
H     4.017000000    -1.692000000     2.882000000
O     2.505000000    -4.188000000    -2.184000000
H     3.022000000    -3.405000000    -2.378000000
H     1.958000000    -3.936000000    -1.440000000
O     3.333000000    -1.770000000     6.212000000
H     3.104000000    -2.058000000     7.096000000
H     2.493000000    -1.701000000     5.758000000
O     5.231000000     0.717000000     4.146000000
H     4.715000000     0.266000000     3.477000000
H     5.490000000     0.025000000     4.755000000
O    -4.056000000    -0.442000000    -4.539000000
H    -3.880000000    -0.493000000    -3.600000000
H    -4.830000000     0.117000000    -4.608000000
O     4.023000000    -1.829000000    -2.106000000
H     4.449000000    -1.202000000    -2.690000000
H     4.433000000    -1.679000000    -1.254000000
O    -6.285000000    -0.335000000     0.318000000
H    -7.155000000    -0.129000000     0.662000000
H    -6.309000000    -1.279000000     0.160000000
O     4.919000000     3.864000000     3.073000000
H     4.683000000     3.385000000     3.867000000
H     4.240000000     4.533000000     2.986000000
O    -1.625000000    -3.557000000     1.690000000
H    -2.265000000    -2.943000000     1.329000000
H    -1.455000000    -4.173000000     0.977000000
O    -1.313000000     3.927000000     2.678000000
H    -1.883000000     3.478000000     3.303000000
H    -0.427000000     3.690000000     2.949000000
O     0.076000000     3.309000000    -2.932000000
H     0.742000000     2.803000000    -2.466000000
H     0.575000000     3.901000000    -3.495000000
O     2.153000000    -0.108000000    -4.657000000
H     1.418000000    -0.079000000    -5.270000000
H     2.662000000    -0.872000000    -4.930000000
O     5.066000000    -3.894000000    -3.890000000
H     4.474000000    -3.467000000    -3.271000000
H     5.786000000    -4.218000000    -3.348000000
O    -0.284000000    -5.425000000    -1.153000000
H    -0.975000000    -5.709000000    -0.554000000
H     0.530000000    -5.602000000    -0.681000000
O    -0.047000000     0.285000000     7.447000000
H     0.655000000    -0.355000000     7.332000000
H    -0.359000000     0.460000000     6.559000000
O     2.998000000     3.076000000    -0.435000000
H     2.710000000     2.347000000    -0.985000000
H     3.887000000     2.840000000    -0.170000000
O     1.376000000     3.702000000     1.988000000
H     1.443000000     2.779000000     2.231000000
H     1.935000000     3.787000000     1.215000000
O    -4.672000000    -2.611000000    -1.896000000
H    -4.229000000    -2.606000000    -1.048000000
H    -4.297000000    -3.361000000    -2.358000000
O     4.710000000     0.502000000     7.179000000
H     4.159000000    -0.128000000     6.714000000
H     4.134000000     0.876000000     7.846000000
