144
-2846.65531
O    -5.714000000     2.294000000     2.871000000
H    -5.006000000     1.989000000     3.438000000
H    -6.486000000     2.303000000     3.437000000
O    -1.039000000     0.835000000     4.203000000
H    -0.885000000    -0.100000000     4.069000000
H    -0.637000000     1.255000000     3.443000000
O     2.572000000    -4.483000000    -0.375000000
H     2.421000000    -3.541000000    -0.450000000
H     1.786000000    -4.882000000    -0.747000000
O    -0.072000000    -3.583000000    -2.633000000
H    -0.691000000    -3.592000000    -1.903000000
H     0.047000000    -2.655000000    -2.835000000
O     0.770000000    -5.397000000     2.664000000
H     1.382000000    -4.661000000     2.662000000
H     0.120000000    -5.165000000     3.328000000
O    -0.489000000    -1.729000000     4.416000000
H     0.368000000    -2.014000000     4.732000000
H    -1.021000000    -2.524000000     4.415000000
O    -3.922000000    -1.878000000     3.463000000
H    -4.201000000    -1.292000000     2.760000000
H    -4.093000000    -1.388000000     4.267000000
O     6.088000000    -2.308000000    -5.286000000
H     6.142000000    -2.108000000    -4.351000000
H     5.550000000    -1.604000000    -5.650000000
O     2.583000000     4.122000000    -1.574000000
H     3.313000000     4.477000000    -1.068000000
H     2.993000000     3.530000000    -2.204000000
O    -4.355000000    -4.344000000     4.212000000
H    -4.112000000    -3.437000000     4.024000000
H    -5.225000000    -4.444000000     3.826000000
O    -1.481000000    -4.589000000     4.421000000
H    -2.392000000    -4.361000000     4.236000000
H    -1.469000000    -4.786000000     5.357000000
O    -2.861000000    -0.643000000     6.585000000
H    -2.229000000    -0.580000000     5.869000000
H    -2.457000000    -0.161000000     7.306000000
O    -2.829000000    -3.635000000     1.665000000
H    -3.556000000    -3.913000000     1.109000000
H    -3.246000000    -3.165000000     2.387000000
O     1.708000000     2.951000000     0.894000000
H     1.017000000     2.420000000     0.497000000
H     2.072000000     3.453000000     0.165000000
O     2.416000000    -3.125000000    -3.978000000
H     2.618000000    -2.366000000    -3.431000000
H     2.919000000    -3.841000000    -3.589000000
O     4.009000000     1.972000000    -2.406000000
H     3.519000000     1.150000000    -2.406000000
H     4.864000000     1.742000000    -2.041000000
O    -0.734000000     2.555000000    -4.266000000
H    -0.863000000     1.625000000    -4.453000000
H    -1.188000000     2.698000000    -3.435000000
O     6.423000000     1.015000000    -5.848000000
H     6.085000000     1.886000000    -5.640000000
H     5.646000000     0.458000000    -5.884000000
O     3.635000000    -6.094000000     1.754000000
H     4.478000000    -6.423000000     1.440000000
H     3.301000000    -5.563000000     1.030000000
O    -5.752000000    -0.254000000     2.127000000
H    -5.786000000     0.693000000     2.268000000
H    -5.758000000    -0.354000000     1.176000000
O     4.212000000    -1.626000000     1.838000000
H     4.266000000    -0.673000000     1.773000000
H     3.877000000    -1.906000000     0.986000000
O    -2.618000000    -2.413000000    -1.337000000
H    -2.251000000    -2.190000000    -0.482000000
H    -2.586000000    -1.595000000    -1.832000000
O     4.857000000    -4.392000000    -1.678000000
H     4.065000000    -4.100000000    -1.226000000
H     4.820000000    -5.348000000    -1.634000000
O    -0.878000000    -0.436000000    -4.356000000
H     0.055000000    -0.228000000    -4.330000000
H    -0.917000000    -1.315000000    -4.733000000
O     5.560000000    -1.810000000    -2.483000000
H     4.657000000    -1.506000000    -2.394000000
H     5.582000000    -2.640000000    -2.007000000
O    -2.676000000    -0.049000000    -2.325000000
H    -2.768000000     0.876000000    -2.100000000
H    -1.993000000    -0.066000000    -2.996000000
O     1.194000000    -6.887000000    -0.859000000
H     0.338000000    -6.570000000    -0.570000000
H     1.073000000    -7.091000000    -1.786000000
O    -6.674000000     3.441000000    -0.358000000
H    -6.390000000     2.706000000     0.185000000
H    -6.256000000     3.288000000    -1.205000000
O     1.845000000     0.140000000    -4.512000000
H     2.383000000    -0.369000000    -5.119000000
H     2.226000000    -0.035000000    -3.651000000
O     3.424000000    -3.868000000     3.111000000
H     3.783000000    -3.181000000     2.549000000
H     3.593000000    -4.681000000     2.634000000
O    -5.392000000     2.907000000    -2.932000000
H    -5.415000000     2.247000000    -3.624000000
H    -5.857000000     3.658000000    -3.302000000
O    -3.947000000     4.610000000     2.328000000
H    -4.580000000     5.138000000     1.840000000
H    -4.293000000     3.719000000     2.281000000
O     6.356000000     0.733000000    -1.304000000
H     6.864000000     0.123000000    -0.769000000
H     5.949000000     0.183000000    -1.973000000
O    -1.974000000     6.381000000    -2.180000000
H    -1.120000000     6.100000000    -2.508000000
H    -1.944000000     6.194000000    -1.242000000
O    -5.235000000    -2.538000000    -0.579000000
H    -4.374000000    -2.518000000    -0.996000000
H    -5.486000000    -1.617000000    -0.504000000
O    -1.876000000     4.551000000     4.593000000
H    -2.491000000     4.300000000     3.904000000
H    -1.870000000     3.805000000     5.192000000
O    -1.628000000     5.397000000     0.423000000
H    -0.760000000     5.362000000     0.824000000
H    -2.231000000     5.194000000     1.138000000
O     4.765000000     1.176000000     1.976000000
H     5.094000000     1.776000000     2.645000000
H     3.936000000     1.563000000     1.695000000
O     0.583000000     5.172000000    -2.856000000
H     1.103000000     4.674000000    -2.226000000
H     1.226000000     5.534000000    -3.465000000
O     4.888000000     3.164000000    -5.009000000
H     4.003000000     3.362000000    -5.315000000
H     4.759000000     2.751000000    -4.155000000
O    -2.745000000     2.778000000    -2.351000000
H    -2.426000000     3.601000000    -1.980000000
H    -3.694000000     2.893000000    -2.408000000
O     2.311000000    -2.217000000     5.084000000
H     2.396000000    -2.401000000     4.148000000
H     2.748000000    -1.374000000     5.203000000
O     4.070000000    -0.339000000    -6.551000000
H     3.592000000     0.363000000    -6.991000000
H     4.200000000    -1.002000000    -7.229000000
O     6.889000000    -1.645000000     2.489000000
H     6.029000000    -1.591000000     2.073000000
H     6.700000000    -1.860000000     3.402000000
O    -0.931000000    -5.266000000     0.473000000
H    -1.672000000    -4.740000000     0.774000000
H    -0.292000000    -5.207000000     1.183000000
O     2.184000000     3.223000000    -6.090000000
H     1.819000000     2.548000000    -5.517000000
H     1.469000000     3.849000000    -6.207000000
O    -3.790000000     1.523000000     4.489000000
H    -4.078000000     1.705000000     5.384000000
H    -2.871000000     1.273000000     4.579000000
O    -5.752000000     0.524000000    -0.574000000
H    -6.647000000     0.371000000    -0.878000000
H    -5.360000000     1.076000000    -1.251000000
