144
-2852.49975
O    -4.003000000     2.380000000     5.291000000
H    -4.399000000     2.163000000     6.135000000
H    -4.377000000     1.745000000     4.680000000
O     1.295000000    -4.355000000    -0.425000000
H     1.061000000    -3.814000000    -1.180000000
H     0.495000000    -4.390000000     0.100000000
O    -1.437000000     5.062000000     0.937000000
H    -0.932000000     5.069000000     1.750000000
H    -2.306000000     4.756000000     1.196000000
O    -2.544000000    -2.205000000     2.352000000
H    -1.928000000    -1.513000000     2.593000000
H    -3.401000000    -1.778000000     2.364000000
O    -1.213000000    -1.788000000     6.409000000
H    -0.405000000    -2.296000000     6.331000000
H    -1.076000000    -1.032000000     5.838000000
O    -0.069000000     1.636000000    -4.904000000
H     0.579000000     1.620000000    -4.200000000
H     0.320000000     2.198000000    -5.575000000
O    -0.980000000     4.822000000    -2.065000000
H    -1.276000000     4.936000000    -1.162000000
H    -0.557000000     5.652000000    -2.285000000
O     4.138000000     2.216000000    -1.142000000
H     3.605000000     2.401000000    -0.369000000
H     4.507000000     1.348000000    -0.976000000
O     2.665000000     0.966000000     3.634000000
H     1.984000000     0.372000000     3.949000000
H     3.477000000     0.616000000     4.001000000
O     6.447000000    -3.937000000    -3.084000000
H     6.604000000    -4.060000000    -2.148000000
H     5.500000000    -4.033000000    -3.183000000
O    -0.985000000    -3.908000000    -3.053000000
H    -1.069000000    -4.030000000    -2.108000000
H    -1.067000000    -2.963000000    -3.182000000
O     1.624000000     1.937000000    -2.751000000
H     1.472000000     2.428000000    -1.944000000
H     2.556000000     2.061000000    -2.935000000
O     3.700000000    -4.062000000    -3.154000000
H     3.311000000    -3.204000000    -2.984000000
H     3.252000000    -4.376000000    -3.940000000
O     3.693000000     0.501000000    -4.410000000
H     2.814000000     0.351000000    -4.061000000
H     4.178000000    -0.292000000    -4.184000000
O    -1.478000000    -3.713000000     0.004000000
H    -1.698000000    -3.113000000     0.717000000
H    -2.100000000    -4.434000000     0.098000000
O    -3.966000000     4.023000000     1.748000000
H    -4.082000000     3.529000000     0.936000000
H    -4.820000000     3.981000000     2.178000000
O    -2.157000000     2.725000000    -3.404000000
H    -1.589000000     2.089000000    -3.839000000
H    -1.555000000     3.375000000    -3.041000000
O    -3.554000000    -0.580000000     5.961000000
H    -2.961000000    -1.274000000     6.251000000
H    -3.945000000    -0.920000000     5.156000000
O     6.332000000     1.955000000     1.742000000
H     6.286000000     2.690000000     1.129000000
H     6.101000000     1.190000000     1.215000000
O    -2.371000000    -1.679000000    -3.828000000
H    -2.977000000    -1.176000000    -3.284000000
H    -2.868000000    -2.454000000    -4.087000000
O     3.307000000     2.654000000     1.597000000
H     3.121000000     2.061000000     2.325000000
H     3.446000000     3.506000000     2.011000000
O     0.138000000     4.631000000     3.125000000
H     0.816000000     4.341000000     3.735000000
H    -0.652000000     4.169000000     3.406000000
O    -2.372000000     6.671000000     4.102000000
H    -1.903000000     5.841000000     4.187000000
H    -3.223000000     6.507000000     4.509000000
O     3.783000000    -2.421000000     3.233000000
H     3.433000000    -2.790000000     2.422000000
H     3.720000000    -1.474000000     3.112000000
O    -4.687000000     0.888000000     3.372000000
H    -4.549000000     1.246000000     2.495000000
H    -5.211000000     0.100000000     3.230000000
O     1.921000000     3.641000000     5.119000000
H     2.393000000     2.920000000     4.703000000
H     2.249000000     3.656000000     6.018000000
O     7.109000000    -1.489000000     2.196000000
H     6.600000000    -0.932000000     1.606000000
H     8.011000000    -1.401000000     1.889000000
O     5.663000000    -0.011000000    -0.152000000
H     6.312000000    -0.217000000    -0.825000000
H     4.916000000    -0.571000000    -0.360000000
O     6.896000000    -1.719000000    -5.123000000
H     6.445000000    -2.380000000    -5.648000000
H     6.343000000    -1.610000000    -4.349000000
O    -1.060000000     0.767000000     4.791000000
H    -1.895000000     0.322000000     4.931000000
H    -1.301000000     1.671000000     4.588000000
O    -4.932000000    -1.950000000     4.051000000
H    -5.329000000    -2.341000000     3.272000000
H    -5.002000000    -2.629000000     4.722000000
O     6.233000000    -4.747000000    -0.439000000
H     5.464000000    -4.194000000    -0.298000000
H     5.996000000    -5.590000000    -0.054000000
O     2.514000000    -0.334000000    -7.440000000
H     2.021000000    -0.568000000    -6.653000000
H     2.833000000     0.552000000    -7.269000000
O     1.545000000    -1.549000000    -5.210000000
H     0.597000000    -1.534000000    -5.344000000
H     1.654000000    -1.508000000    -4.260000000
O     5.156000000     0.462000000     4.226000000
H     5.889000000    -0.068000000     4.539000000
H     5.520000000     0.973000000     3.504000000
O     2.842000000    -3.810000000    -5.880000000
H     3.379000000    -3.842000000    -6.672000000
H     2.366000000    -2.982000000    -5.946000000
O     3.733000000    -3.486000000     0.652000000
H     2.882000000    -3.910000000     0.545000000
H     3.741000000    -2.793000000    -0.008000000
O    -5.520000000     2.329000000     0.110000000
H    -5.002000000     2.213000000    -0.687000000
H    -6.165000000     2.997000000    -0.119000000
O    -6.481000000    -0.474000000    -0.079000000
H    -7.113000000    -0.899000000     0.500000000
H    -6.473000000     0.440000000     0.205000000
O    -4.466000000    -0.840000000    -2.195000000
H    -5.142000000    -1.164000000    -2.790000000
H    -4.848000000    -0.940000000    -1.322000000
O     5.379000000    -1.408000000    -3.060000000
H     6.022000000    -0.979000000    -2.495000000
H     4.698000000    -1.713000000    -2.460000000
O    -1.092000000    -0.646000000    -5.841000000
H    -1.709000000    -0.877000000    -5.148000000
H    -0.700000000     0.178000000    -5.549000000
O    -2.231000000     3.714000000     3.862000000
H    -2.745000000     3.678000000     3.055000000
H    -2.856000000     3.498000000     4.554000000
O     1.452000000    -1.745000000     4.901000000
H     1.910000000    -1.515000000     5.709000000
H     2.120000000    -2.163000000     4.357000000
O     4.137000000    -6.418000000    -2.162000000
H     3.243000000    -6.565000000    -1.853000000
H     4.232000000    -5.466000000    -2.177000000
O     0.239000000     1.409000000     7.349000000
H    -0.096000000     2.271000000     7.598000000
H     0.068000000     1.348000000     6.409000000
O     1.525000000     3.320000000    -0.451000000
H     2.038000000     3.052000000     0.312000000
H     0.620000000     3.322000000    -0.141000000
O    -4.587000000     2.175000000    -2.665000000
H    -4.635000000     1.221000000    -2.719000000
H    -3.707000000     2.389000000    -2.977000000
