144
-2834.05247
O    -5.895000000     1.639000000    -0.478000000
H    -5.502000000     1.719000000    -1.347000000
H    -6.021000000     0.698000000    -0.358000000
O    -0.528000000    -2.680000000    -4.037000000
H     0.130000000    -2.467000000    -3.375000000
H    -1.273000000    -3.013000000    -3.536000000
O     0.914000000     4.276000000     0.536000000
H     1.734000000     4.133000000     1.010000000
H     0.254000000     4.369000000     1.223000000
O    -0.122000000    -3.210000000     1.291000000
H     0.221000000    -2.345000000     1.068000000
H     0.560000000    -3.605000000     1.834000000
O    -3.393000000     5.395000000     4.867000000
H    -3.102000000     4.484000000     4.913000000
H    -2.880000000     5.845000000     5.539000000
O     6.726000000    -0.831000000    -0.387000000
H     6.745000000     0.121000000    -0.488000000
H     7.605000000    -1.058000000    -0.085000000
O    -0.357000000     1.545000000     4.885000000
H     0.294000000     0.901000000     4.604000000
H     0.006000000     2.387000000     4.608000000
O     4.830000000     0.552000000     2.843000000
H     4.377000000    -0.031000000     3.452000000
H     5.017000000     0.004000000     2.081000000
O     6.767000000    -3.841000000    -3.247000000
H     7.393000000    -4.478000000    -2.903000000
H     6.091000000    -3.782000000    -2.573000000
O    -3.179000000    -3.609000000    -2.988000000
H    -3.416000000    -3.273000000    -2.124000000
H    -3.676000000    -4.422000000    -3.074000000
O     0.105000000     1.955000000    -3.307000000
H    -0.085000000     1.161000000    -2.807000000
H    -0.381000000     2.645000000    -2.855000000
O     1.455000000    -5.138000000    -2.836000000
H     1.679000000    -4.259000000    -2.532000000
H     1.556000000    -5.097000000    -3.787000000
O     2.861000000     2.631000000    -3.959000000
H     3.273000000     1.858000000    -4.344000000
H     1.955000000     2.366000000    -3.800000000
O    -1.902000000    -4.937000000     0.564000000
H    -1.334000000    -4.214000000     0.832000000
H    -1.360000000    -5.460000000    -0.028000000
O    -1.179000000     1.561000000    -5.607000000
H    -0.598000000     1.635000000    -4.850000000
H    -0.617000000     1.232000000    -6.309000000
O    -1.950000000    -2.827000000     3.339000000
H    -1.266000000    -3.101000000     2.727000000
H    -2.706000000    -3.367000000     3.111000000
O     5.440000000    -3.399000000    -5.344000000
H     4.803000000    -2.771000000    -5.003000000
H     5.981000000    -3.626000000    -4.588000000
O    -0.898000000     5.593000000     2.486000000
H    -1.563000000     5.090000000     2.955000000
H    -0.246000000     5.809000000     3.153000000
O    -3.676000000     0.380000000    -5.393000000
H    -3.518000000    -0.344000000    -6.000000000
H    -2.844000000     0.851000000    -5.359000000
O    -2.961000000    -0.537000000     4.894000000
H    -2.754000000    -1.244000000     4.282000000
H    -2.285000000     0.122000000     4.735000000
O     4.873000000    -3.972000000    -1.499000000
H     4.793000000    -4.582000000    -0.765000000
H     4.037000000    -3.506000000    -1.515000000
O    -3.612000000    -2.702000000    -5.469000000
H    -4.569000000    -2.698000000    -5.475000000
H    -3.380000000    -2.839000000    -4.550000000
O     3.289000000     2.308000000    -1.192000000
H     3.262000000     2.680000000    -0.311000000
H     2.881000000     1.447000000    -1.101000000
O     1.150000000     3.138000000     3.612000000
H     1.985000000     2.821000000     3.271000000
H     1.389000000     3.838000000     4.220000000
O     4.547000000    -1.659000000     1.112000000
H     5.217000000    -1.321000000     0.517000000
H     4.127000000    -2.366000000     0.623000000
O     1.852000000    -2.799000000    -7.385000000
H     2.588000000    -3.239000000    -7.809000000
H     2.222000000    -2.431000000    -6.582000000
O    -5.541000000     1.443000000    -3.640000000
H    -5.035000000     0.972000000    -4.302000000
H    -4.899000000     2.000000000    -3.199000000
O    -0.579000000    -6.407000000    -1.191000000
H     0.307000000    -6.057000000    -1.094000000
H    -0.803000000    -6.240000000    -2.106000000
O    -4.782000000     1.129000000     3.081000000
H    -4.579000000     0.197000000     2.998000000
H    -5.383000000     1.309000000     2.357000000
O     6.151000000     1.902000000    -0.828000000
H     5.202000000     1.802000000    -0.901000000
H     6.336000000     2.741000000    -1.251000000
O    -2.907000000     2.671000000     4.561000000
H    -3.539000000     2.143000000     4.071000000
H    -2.286000000     2.034000000     4.914000000
O    -0.510000000    -4.291000000    -6.235000000
H    -0.567000000    -3.778000000    -5.429000000
H     0.345000000    -4.068000000    -6.602000000
O     3.315000000    -7.089000000    -1.828000000
H     3.835000000    -6.591000000    -1.198000000
H     2.608000000    -6.494000000    -2.078000000
O     2.775000000    -1.704000000    -4.828000000
H     2.185000000    -1.090000000    -5.266000000
H     2.320000000    -1.937000000    -4.019000000
O     3.934000000    -1.821000000     3.977000000
H     3.873000000    -2.123000000     3.070000000
H     4.510000000    -2.455000000     4.402000000
O     3.495000000     2.776000000     1.552000000
H     3.845000000     3.667000000     1.547000000
H     4.031000000     2.311000000     2.194000000
O     1.723000000    -4.027000000     3.272000000
H     1.896000000    -4.961000000     3.391000000
H     2.040000000    -3.620000000     4.078000000
O     1.667000000    -4.610000000     0.012000000
H     2.134000000    -3.917000000    -0.455000000
H     0.836000000    -4.209000000     0.267000000
O    -3.455000000     2.734000000    -2.251000000
H    -3.223000000     2.694000000    -1.323000000
H    -3.346000000     3.656000000    -2.485000000
O    -3.918000000    -3.145000000    -0.364000000
H    -4.120000000    -2.440000000     0.251000000
H    -3.248000000    -3.665000000     0.079000000
O    -6.059000000     4.384000000     0.307000000
H    -5.345000000     4.351000000     0.944000000
H    -6.086000000     3.504000000    -0.069000000
O    -4.956000000    -1.680000000     2.040000000
H    -4.798000000    -2.600000000     2.251000000
H    -5.900000000    -1.566000000     2.156000000
O    -4.020000000     4.156000000     2.486000000
H    -3.856000000     4.457000000     3.380000000
H    -3.757000000     3.236000000     2.490000000
O     1.414000000    -0.606000000     4.471000000
H     0.940000000    -1.258000000     4.987000000
H     2.322000000    -0.909000000     4.480000000
O     4.230000000    -5.340000000     0.826000000
H     4.511000000    -5.717000000     1.659000000
H     3.274000000    -5.375000000     0.858000000
O    -1.681000000    -1.229000000    -6.593000000
H    -2.297000000    -1.955000000    -6.496000000
H    -0.865000000    -1.554000000    -6.214000000
O    -1.008000000     3.922000000    -1.751000000
H    -1.302000000     4.784000000    -1.456000000
H    -0.214000000     3.754000000    -1.245000000
O     2.906000000    -4.898000000    -5.420000000
H     3.265000000    -5.152000000    -6.270000000
H     3.614000000    -4.412000000    -4.997000000
