144
-2806.72273
O    -0.831000000     3.072000000    -6.119000000
H    -0.705000000     3.997000000    -6.329000000
H    -0.190000000     2.893000000    -5.431000000
O    -2.069000000    -2.805000000     5.727000000
H    -1.345000000    -2.851000000     5.104000000
H    -2.846000000    -3.014000000     5.208000000
O    -2.203000000    -0.441000000    -3.972000000
H    -1.257000000    -0.394000000    -3.833000000
H    -2.297000000    -0.740000000    -4.877000000
O     1.762000000     3.168000000     3.535000000
H     2.626000000     3.038000000     3.926000000
H     1.198000000     3.400000000     4.274000000
O    -1.737000000    -3.245000000    -1.696000000
H    -1.680000000    -2.788000000    -2.535000000
H    -2.554000000    -2.930000000    -1.307000000
O    -1.409000000     3.320000000     4.878000000
H    -2.314000000     3.029000000     4.994000000
H    -1.463000000     4.014000000     4.222000000
O    -1.900000000     5.646000000     3.478000000
H    -1.148000000     6.201000000     3.679000000
H    -2.613000000     6.261000000     3.307000000
O    -3.291000000    -4.690000000     2.137000000
H    -2.571000000    -4.241000000     1.693000000
H    -2.862000000    -5.240000000     2.792000000
O     2.007000000     5.466000000    -3.549000000
H     1.290000000     4.834000000    -3.503000000
H     2.545000000     5.275000000    -2.781000000
O     3.374000000     4.063000000    -1.656000000
H     3.867000000     4.198000000    -0.846000000
H     3.013000000     3.181000000    -1.573000000
O     1.911000000    -5.561000000    -2.284000000
H     2.307000000    -5.574000000    -3.155000000
H     2.042000000    -4.665000000    -1.974000000
O     3.859000000    -3.424000000     1.581000000
H     3.702000000    -3.221000000     0.659000000
H     4.484000000    -4.149000000     1.563000000
O    -3.409000000     4.434000000    -3.209000000
H    -3.408000000     3.813000000    -3.938000000
H    -2.605000000     4.239000000    -2.727000000
O     5.913000000    -2.405000000    -3.621000000
H     5.765000000    -1.679000000    -3.015000000
H     6.382000000    -2.011000000    -4.357000000
O     1.041000000    -3.521000000    -4.402000000
H     1.519000000    -2.824000000    -3.953000000
H     0.677000000    -3.099000000    -5.180000000
O     1.001000000    -1.222000000    -6.333000000
H     1.843000000    -0.824000000    -6.554000000
H     0.959000000    -1.178000000    -5.377000000
O     4.181000000     1.565000000    -6.308000000
H     4.063000000     0.624000000    -6.182000000
H     4.497000000     1.649000000    -7.208000000
O    -3.076000000     2.161000000    -4.913000000
H    -2.749000000     1.716000000    -4.131000000
H    -2.287000000     2.416000000    -5.391000000
O    -4.227000000    -2.794000000     4.091000000
H    -4.442000000    -1.922000000     3.758000000
H    -3.747000000    -3.212000000     3.376000000
O     3.696000000    -1.056000000    -4.951000000
H     4.427000000    -1.626000000    -4.710000000
H     3.089000000    -1.121000000    -4.214000000
O     4.278000000    -4.390000000    -3.911000000
H     4.236000000    -4.564000000    -4.851000000
H     4.969000000    -3.734000000    -3.819000000
O     3.409000000    -1.900000000     5.678000000
H     4.119000000    -1.930000000     6.319000000
H     3.812000000    -1.534000000     4.891000000
O    -1.675000000    -0.871000000    -6.614000000
H    -1.899000000    -0.341000000    -7.379000000
H    -0.722000000    -0.806000000    -6.548000000
O    -5.542000000     3.488000000    -1.770000000
H    -6.071000000     4.262000000    -1.964000000
H    -4.688000000     3.678000000    -2.158000000
O     0.394000000     1.457000000     6.075000000
H     0.578000000     0.645000000     5.602000000
H    -0.048000000     2.013000000     5.433000000
O    -4.735000000    -0.310000000     3.242000000
H    -5.244000000     0.371000000     3.682000000
H    -5.259000000    -0.543000000     2.476000000
O     4.401000000     1.333000000     0.246000000
H     4.458000000     0.641000000     0.905000000
H     4.726000000     0.927000000    -0.557000000
O    -4.520000000    -0.432000000    -2.595000000
H    -3.794000000    -0.367000000    -3.215000000
H    -4.125000000    -0.788000000    -1.799000000
O    -0.911000000    -5.643000000    -3.411000000
H    -0.052000000    -5.334000000    -3.697000000
H    -1.035000000    -5.243000000    -2.550000000
O    -6.767000000     3.024000000     2.055000000
H    -7.127000000     3.639000000     2.695000000
H    -5.846000000     2.936000000     2.300000000
O     0.797000000     2.388000000    -3.944000000
H     1.737000000     2.438000000    -4.119000000
H     0.632000000     1.458000000    -3.788000000
O     1.696000000     0.081000000     8.094000000
H     0.926000000    -0.245000000     7.628000000
H     2.105000000     0.692000000     7.482000000
O    -3.092000000    -0.043000000     6.123000000
H    -2.933000000    -0.967000000     5.930000000
H    -2.667000000     0.428000000     5.407000000
O     1.643000000     3.173000000     0.465000000
H     2.053000000     3.085000000     1.325000000
H     1.140000000     2.366000000     0.356000000
O     4.873000000    -0.851000000     1.860000000
H     4.264000000    -1.590000000     1.859000000
H     5.245000000    -0.849000000     2.742000000
O    -0.373000000    -2.964000000     3.717000000
H    -0.767000000    -3.158000000     2.867000000
H     0.413000000    -3.511000000     3.747000000
O    -0.771000000     3.975000000    -2.505000000
H    -0.352000000     3.470000000    -3.202000000
H    -0.334000000     3.686000000    -1.704000000
O    -1.392000000    -3.022000000     1.044000000
H    -1.518000000    -3.126000000     0.101000000
H    -0.573000000    -2.533000000     1.123000000
O     3.899000000    -3.058000000    -1.115000000
H     3.697000000    -2.494000000    -1.861000000
H     4.312000000    -3.830000000    -1.502000000
O    -1.548000000     4.954000000     0.930000000
H    -1.714000000     5.046000000     1.868000000
H    -2.260000000     4.396000000     0.615000000
O    -4.087000000     4.237000000     0.574000000
H    -4.474000000     4.906000000     1.140000000
H    -4.813000000     3.938000000     0.026000000
O    -4.022000000    -2.673000000    -0.323000000
H    -4.536000000    -3.440000000    -0.070000000
H    -4.220000000    -2.020000000     0.348000000
O    -6.086000000    -1.108000000     0.942000000
H    -6.293000000    -0.234000000     0.610000000
H    -6.798000000    -1.661000000     0.621000000
O     2.205000000    -4.255000000     3.593000000
H     2.753000000    -3.837000000     4.257000000
H     2.698000000    -4.158000000     2.779000000
O    -4.016000000     2.636000000     4.999000000
H    -4.649000000     3.327000000     5.194000000
H    -4.479000000     1.823000000     5.202000000
O     0.954000000     5.825000000    -0.500000000
H     1.307000000     4.952000000    -0.328000000
H     0.085000000     5.816000000    -0.098000000
O     0.843000000    -0.959000000     5.504000000
H     0.432000000    -1.437000000     4.783000000
H     1.654000000    -1.436000000     5.677000000
O     2.454000000    -3.175000000    -7.555000000
H     2.010000000    -3.667000000    -8.246000000
H     1.799000000    -2.548000000    -7.248000000
