144
-2794.26111
O    -4.228000000    -1.616000000    -0.123000000
H    -3.437000000    -1.851000000     0.361000000
H    -4.944000000    -1.986000000     0.394000000
O     5.647000000     2.454000000     4.377000000
H     5.224000000     2.101000000     3.594000000
H     5.015000000     3.081000000     4.728000000
O    -4.245000000     2.578000000     2.134000000
H    -4.050000000     2.919000000     1.261000000
H    -3.653000000     1.833000000     2.238000000
O    -1.112000000     3.774000000     6.113000000
H    -0.303000000     4.272000000     6.232000000
H    -1.510000000     4.148000000     5.327000000
O     0.856000000     1.727000000    -2.950000000
H     1.059000000     1.291000000    -2.123000000
H     0.568000000     2.604000000    -2.695000000
O     2.828000000    -0.422000000     6.014000000
H     2.073000000    -0.826000000     6.442000000
H     2.799000000    -0.750000000     5.116000000
O     3.131000000    -3.730000000     3.390000000
H     2.191000000    -3.776000000     3.565000000
H     3.275000000    -2.831000000     3.094000000
O    -2.615000000    -4.313000000    -4.468000000
H    -2.953000000    -5.135000000    -4.822000000
H    -2.172000000    -4.565000000    -3.658000000
O     4.931000000    -2.778000000     0.543000000
H     4.751000000    -2.330000000    -0.284000000
H     4.429000000    -3.591000000     0.489000000
O     0.817000000    -6.463000000    -0.673000000
H     0.256000000    -5.846000000    -0.204000000
H     1.444000000    -5.910000000    -1.139000000
O    -1.727000000     1.388000000     3.371000000
H    -1.277000000     1.097000000     4.165000000
H    -1.114000000     1.996000000     2.958000000
O    -6.932000000     0.778000000     0.074000000
H    -7.134000000    -0.070000000     0.468000000
H    -6.218000000     0.594000000    -0.537000000
O    -0.193000000     5.401000000     2.268000000
H     0.621000000     5.881000000     2.420000000
H     0.070000000     4.480000000     2.261000000
O    -0.240000000    -2.264000000     2.012000000
H     0.086000000    -1.867000000     1.205000000
H    -1.114000000    -1.892000000     2.127000000
O     2.339000000    -5.057000000    -2.740000000
H     1.955000000    -4.193000000    -2.890000000
H     1.866000000    -5.636000000    -3.337000000
O     2.114000000     3.257000000     7.114000000
H     2.347000000     2.807000000     6.302000000
H     1.278000000     2.870000000     7.371000000
O    -2.623000000    -1.091000000     2.038000000
H    -2.359000000    -0.174000000     2.122000000
H    -3.458000000    -1.143000000     2.504000000
O     1.326000000     4.462000000    -1.229000000
H     1.398000000     4.602000000    -2.173000000
H     0.395000000     4.296000000    -1.081000000
O    -0.691000000     0.703000000     5.747000000
H    -0.085000000     0.451000000     6.445000000
H    -1.026000000     1.558000000     6.017000000
O    -2.919000000     0.588000000    -6.546000000
H    -3.645000000     0.766000000    -5.948000000
H    -2.344000000     0.000000000    -6.057000000
O     2.057000000     7.030000000     1.870000000
H     2.427000000     6.154000000     1.760000000
H     1.832000000     7.308000000     0.982000000
O    -0.616000000    -0.956000000    -6.803000000
H    -0.169000000    -0.996000000    -7.649000000
H     0.038000000    -0.598000000    -6.203000000
O     2.331000000    -1.989000000    -4.329000000
H     1.982000000    -1.195000000    -4.735000000
H     2.107000000    -2.689000000    -4.943000000
O     5.877000000     4.425000000     1.845000000
H     5.595000000     5.065000000     2.498000000
H     6.789000000     4.241000000     2.067000000
O    -5.978000000    -3.662000000    -2.226000000
H    -6.363000000    -4.159000000    -1.504000000
H    -5.114000000    -4.054000000    -2.352000000
O    -6.599000000     1.756000000    -2.999000000
H    -6.960000000     0.891000000    -2.801000000
H    -5.745000000     1.763000000    -2.567000000
O     4.182000000    -2.035000000    -2.384000000
H     4.700000000    -2.758000000    -2.739000000
H     3.506000000    -1.879000000    -3.043000000
O    -1.683000000     5.683000000     0.044000000
H    -1.426000000     5.467000000     0.940000000
H    -1.553000000     4.870000000    -0.445000000
O    -5.014000000     5.422000000     0.816000000
H    -4.351000000     4.791000000     0.539000000
H    -4.626000000     6.277000000     0.626000000
O    -3.799000000     3.031000000    -0.481000000
H    -3.936000000     2.149000000    -0.826000000
H    -4.067000000     3.611000000    -1.194000000
O     3.469000000    -1.025000000     3.309000000
H     2.816000000    -0.608000000     2.747000000
H     4.285000000    -0.566000000     3.109000000
O    -2.712000000    -2.589000000    -6.417000000
H    -2.640000000    -3.115000000    -5.620000000
H    -1.876000000    -2.127000000    -6.476000000
O    -2.066000000     1.648000000    -3.768000000
H    -1.109000000     1.643000000    -3.734000000
H    -2.304000000     0.740000000    -3.954000000
O     2.846000000     4.423000000     1.188000000
H     2.677000000     3.549000000     1.542000000
H     2.506000000     4.389000000     0.294000000
O     3.746000000    -5.188000000    -0.093000000
H     3.960000000    -6.121000000    -0.098000000
H     3.561000000    -4.980000000    -1.009000000
O    -1.799000000    -5.302000000    -2.216000000
H    -1.840000000    -6.258000000    -2.227000000
H    -1.793000000    -5.072000000    -1.287000000
O     0.027000000     6.385000000     5.875000000
H    -0.643000000     6.656000000     5.247000000
H     0.745000000     6.058000000     5.333000000
O    -3.252000000    -5.338000000     1.608000000
H    -3.146000000    -6.270000000     1.418000000
H    -3.212000000    -5.283000000     2.563000000
O    -1.320000000     4.114000000    -2.341000000
H    -1.922000000     3.489000000    -2.746000000
H    -1.088000000     4.716000000    -3.048000000
O     2.290000000     5.187000000     4.527000000
H     3.107000000     5.682000000     4.479000000
H     2.561000000     4.270000000     4.475000000
O    -4.752000000     0.351000000    -1.566000000
H    -4.474000000    -0.360000000    -0.989000000
H    -4.389000000     0.122000000    -2.421000000
O    -2.385000000     4.536000000     3.857000000
H    -2.586000000     3.853000000     3.217000000
H    -1.539000000     4.885000000     3.577000000
O    -0.548000000    -4.714000000     0.634000000
H    -1.407000000    -4.901000000     1.012000000
H    -0.115000000    -4.161000000     1.285000000
O    -5.358000000    -5.445000000    -0.204000000
H    -4.579000000    -5.274000000     0.326000000
H    -5.241000000    -6.341000000    -0.520000000
O    -3.383000000    -0.834000000    -3.810000000
H    -4.277000000    -0.996000000    -4.113000000
H    -3.046000000    -1.702000000    -3.585000000
O     2.821000000     2.309000000     4.802000000
H     3.085000000     1.426000000     5.060000000
H     2.516000000     2.214000000     3.900000000
O     4.969000000     3.287000000    -1.054000000
H     5.689000000     2.789000000    -0.670000000
H     4.529000000     3.689000000    -0.305000000
O     4.691000000     1.232000000     2.138000000
H     5.303000000     1.612000000     1.508000000
H     3.840000000     1.598000000     1.897000000
