144
-2798.07764
O     6.352000000    -1.892000000    -0.233000000
H     5.575000000    -2.217000000    -0.687000000
H     6.160000000    -2.021000000     0.696000000
O    -3.944000000    -2.858000000     0.778000000
H    -4.356000000    -3.169000000     1.583000000
H    -3.007000000    -2.855000000     0.974000000
O     3.742000000     2.820000000     6.437000000
H     3.803000000     3.350000000     7.232000000
H     2.851000000     2.470000000     6.451000000
O    -4.365000000     1.861000000     2.124000000
H    -4.307000000     2.051000000     1.188000000
H    -3.465000000     1.667000000     2.385000000
O    -2.224000000     4.305000000     4.255000000
H    -1.587000000     4.124000000     4.946000000
H    -2.998000000     4.623000000     4.720000000
O     0.518000000     2.037000000    -2.326000000
H     0.853000000     1.222000000    -1.951000000
H     1.073000000     2.195000000    -3.090000000
O     2.616000000    -0.410000000     5.891000000
H     3.571000000    -0.448000000     5.942000000
H     2.318000000    -0.702000000     6.753000000
O     0.810000000    -3.236000000     3.507000000
H     0.844000000    -3.474000000     4.434000000
H     1.506000000    -2.588000000     3.400000000
O    -3.794000000     5.035000000    -1.746000000
H    -2.879000000     4.870000000    -1.972000000
H    -4.214000000     5.241000000    -2.581000000
O    -3.500000000    -3.696000000    -4.746000000
H    -3.959000000    -4.079000000    -5.493000000
H    -3.529000000    -4.376000000    -4.073000000
O     3.790000000    -4.413000000     0.185000000
H     3.671000000    -3.890000000    -0.607000000
H     4.069000000    -5.271000000    -0.135000000
O    -0.205000000    -7.262000000    -1.758000000
H    -0.853000000    -6.572000000    -1.899000000
H     0.580000000    -6.949000000    -2.208000000
O    -1.361000000     1.967000000     3.337000000
H    -1.752000000     2.700000000     3.812000000
H    -0.531000000     2.310000000     3.006000000
O     4.894000000    -2.731000000     2.146000000
H     4.013000000    -2.444000000     2.389000000
H     4.752000000    -3.519000000     1.621000000
O     0.465000000     5.471000000     2.331000000
H     0.266000000     5.829000000     3.196000000
H     0.966000000     4.676000000     2.510000000
O    -1.301000000    -3.214000000     1.801000000
H    -0.455000000    -3.286000000     2.243000000
H    -1.567000000    -2.305000000     1.939000000
O     0.458000000    -4.019000000    -3.374000000
H     0.292000000    -3.608000000    -2.526000000
H     1.387000000    -3.860000000    -3.540000000
O    -0.132000000     3.990000000     6.384000000
H     0.377000000     3.234000000     6.090000000
H     0.404000000     4.389000000     7.068000000
O    -2.158000000    -0.673000000     2.812000000
H    -1.948000000     0.261000000     2.792000000
H    -2.726000000    -0.774000000     3.575000000
O    -3.576000000     2.941000000    -4.897000000
H    -3.049000000     2.583000000    -4.183000000
H    -4.388000000     2.434000000    -4.874000000
O     5.815000000     5.338000000     4.383000000
H     5.025000000     4.929000000     4.032000000
H     5.529000000     5.752000000     5.198000000
O    -1.174000000     0.175000000     5.564000000
H    -0.494000000     0.818000000     5.768000000
H    -0.954000000    -0.135000000     4.686000000
O     3.933000000     6.711000000     2.482000000
H     3.688000000     5.855000000     2.834000000
H     3.257000000     6.905000000     1.832000000
O    -1.947000000    -0.296000000    -7.033000000
H    -1.894000000     0.649000000    -6.890000000
H    -2.244000000    -0.649000000    -6.195000000
O     2.779000000    -3.021000000    -4.087000000
H     2.703000000    -2.203000000    -4.578000000
H     2.704000000    -3.706000000    -4.751000000
O    -4.498000000    -4.182000000    -1.770000000
H    -5.047000000    -4.543000000    -1.073000000
H    -3.647000000    -4.041000000    -1.356000000
O     1.407000000    -5.611000000     2.276000000
H     1.442000000    -5.135000000     1.447000000
H     1.206000000    -4.940000000     2.929000000
O     4.458000000    -2.684000000    -2.131000000
H     5.334000000    -2.684000000    -2.515000000
H     3.875000000    -2.885000000    -2.862000000
O    -1.294000000     5.536000000     0.285000000
H    -0.770000000     5.182000000     1.004000000
H    -1.173000000     6.483000000     0.344000000
O    -3.803000000     5.039000000     1.752000000
H    -3.048000000     5.262000000     1.208000000
H    -3.425000000     4.645000000     2.538000000
O    -5.103000000     2.866000000    -0.397000000
H    -5.343000000     2.665000000    -1.302000000
H    -4.659000000     3.712000000    -0.449000000
O     2.755000000    -1.413000000     3.087000000
H     2.598000000    -0.674000000     2.499000000
H     2.986000000    -1.008000000     3.923000000
O    -0.381000000    -4.122000000    -5.947000000
H    -0.424000000    -3.168000000    -5.999000000
H    -0.112000000    -4.302000000    -5.046000000
O    -2.116000000     1.380000000    -3.111000000
H    -1.428000000     1.448000000    -2.449000000
H    -2.087000000     0.466000000    -3.394000000
O     6.638000000     3.000000000    -0.015000000
H     7.389000000     2.505000000    -0.344000000
H     5.876000000     2.540000000    -0.367000000
O     3.121000000     4.188000000    -0.033000000
H     2.475000000     4.095000000     0.667000000
H     2.702000000     4.766000000    -0.671000000
O    -3.463000000    -6.285000000    -3.183000000
H    -3.313000000    -7.146000000    -2.793000000
H    -3.783000000    -5.746000000    -2.459000000
O    -0.885000000     4.714000000    -2.203000000
H    -0.840000000     3.766000000    -2.084000000
H    -1.084000000     5.056000000    -1.331000000
O     3.555000000     3.904000000     3.682000000
H     2.934000000     3.283000000     3.302000000
H     3.410000000     3.839000000     4.626000000
O    -6.995000000     1.146000000     0.441000000
H    -6.302000000     1.800000000     0.354000000
H    -6.588000000     0.326000000     0.160000000
O    -1.646000000    -5.197000000    -0.039000000
H    -2.036000000    -5.881000000     0.505000000
H    -1.605000000    -4.431000000     0.534000000
O     3.657000000     0.991000000    -2.741000000
H     3.267000000     0.126000000    -2.612000000
H     4.069000000     1.195000000    -1.901000000
O    -2.993000000    -1.069000000    -4.682000000
H    -3.268000000    -1.984000000    -4.617000000
H    -3.792000000    -0.595000000    -4.912000000
O     1.062000000     1.742000000     5.134000000
H     1.662000000     1.010000000     5.277000000
H     1.126000000     1.924000000     4.197000000
O     4.236000000     1.693000000    -0.205000000
H     3.957000000     1.258000000     0.601000000
H     3.741000000     2.512000000    -0.219000000
O     5.612000000     1.328000000     2.645000000
H     5.964000000     1.670000000     1.823000000
H     4.671000000     1.490000000     2.589000000
O    -6.517000000    -2.870000000    -3.830000000
H    -6.786000000    -3.701000000    -4.222000000
H    -5.577000000    -2.972000000    -3.675000000
O    -6.113000000    -1.467000000    -0.746000000
H    -6.655000000    -1.890000000    -1.411000000
H    -5.503000000    -2.150000000    -0.465000000
