144
-2803.39847
O     0.562000000     3.586000000     1.754000000
H     0.521000000     3.237000000     2.645000000
H     0.007000000     4.366000000     1.777000000
O    -3.013000000    -0.078000000     3.706000000
H    -2.680000000    -0.836000000     4.187000000
H    -2.773000000    -0.248000000     2.795000000
O    -2.037000000    -2.550000000     2.510000000
H    -1.153000000    -2.909000000     2.432000000
H    -2.571000000    -3.291000000     2.795000000
O     4.675000000    -0.851000000     4.346000000
H     4.619000000    -1.753000000     4.029000000
H     4.477000000    -0.914000000     5.281000000
O    -5.211000000     5.708000000    -2.482000000
H    -4.883000000     6.585000000    -2.681000000
H    -5.770000000     5.830000000    -1.715000000
O    -1.953000000     3.356000000    -6.782000000
H    -2.629000000     2.757000000    -6.465000000
H    -1.249000000     3.285000000    -6.137000000
O    -3.671000000     6.631000000     0.633000000
H    -3.298000000     5.760000000     0.767000000
H    -4.601000000     6.472000000     0.470000000
O    -2.409000000     4.838000000    -1.730000000
H    -2.575000000     4.018000000    -1.265000000
H    -3.272000000     5.241000000    -1.822000000
O     2.091000000     1.980000000    -2.229000000
H     2.045000000     2.700000000    -1.600000000
H     1.517000000     1.306000000    -1.866000000
O    -7.566000000     0.478000000     0.478000000
H    -8.057000000    -0.082000000     1.081000000
H    -6.684000000     0.106000000     0.471000000
O    -4.552000000     1.924000000    -7.184000000
H    -4.385000000     1.947000000    -6.241000000
H    -5.467000000     1.653000000    -7.258000000
O    -4.913000000    -0.214000000     0.428000000
H    -4.482000000    -0.643000000    -0.312000000
H    -4.241000000    -0.179000000     1.109000000
O     4.670000000    -3.841000000     4.225000000
H     5.521000000    -4.203000000     4.474000000
H     4.061000000    -4.195000000     4.872000000
O     4.907000000     3.682000000     3.531000000
H     4.239000000     3.108000000     3.156000000
H     5.704000000     3.153000000     3.534000000
O     0.435000000    -4.171000000     3.395000000
H     1.238000000    -4.671000000     3.253000000
H     0.733000000    -3.339000000     3.762000000
O     1.660000000    -4.018000000    -2.809000000
H     2.557000000    -4.277000000    -2.599000000
H     1.147000000    -4.819000000    -2.697000000
O    -3.720000000    -2.406000000    -1.000000000
H    -3.601000000    -2.098000000    -1.898000000
H    -2.849000000    -2.695000000    -0.728000000
O    -3.314000000    -1.370000000    -3.326000000
H    -2.949000000    -0.566000000    -2.957000000
H    -2.814000000    -1.513000000    -4.130000000
O    -0.986000000    -2.427000000    -5.118000000
H    -1.414000000    -3.101000000    -5.644000000
H    -0.052000000    -2.631000000    -5.180000000
O    -1.747000000     5.123000000     4.418000000
H    -2.071000000     6.022000000     4.473000000
H    -2.370000000     4.678000000     3.845000000
O     4.784000000     0.819000000    -1.839000000
H     4.031000000     1.140000000    -2.336000000
H     4.796000000    -0.124000000    -2.006000000
O     5.658000000     2.794000000     0.322000000
H     4.945000000     2.395000000    -0.177000000
H     5.274000000     2.981000000     1.179000000
O     5.515000000    -4.359000000     0.379000000
H     6.302000000    -3.892000000     0.097000000
H     5.776000000    -4.805000000     1.184000000
O    -0.665000000     2.255000000    -4.369000000
H    -1.146000000     1.795000000    -3.681000000
H    -0.067000000     1.597000000    -4.723000000
O    -3.227000000     3.783000000     1.395000000
H    -3.502000000     3.390000000     2.223000000
H    -3.349000000     3.089000000     0.747000000
O     3.126000000    -4.266000000     1.932000000
H     3.618000000    -3.776000000     1.274000000
H     3.689000000    -4.257000000     2.707000000
O     1.639000000    -6.615000000     1.875000000
H     2.066000000    -5.764000000     1.782000000
H     2.100000000    -7.037000000     2.600000000
O     0.552000000     4.159000000    -1.024000000
H    -0.353000000     4.445000000    -1.145000000
H     0.608000000     3.927000000    -0.097000000
O    -5.506000000     2.291000000    -2.034000000
H    -4.634000000     2.440000000    -1.667000000
H    -5.814000000     1.493000000    -1.604000000
O    -3.859000000     2.531000000    -4.568000000
H    -4.535000000     2.948000000    -4.033000000
H    -3.225000000     2.196000000    -3.933000000
O     3.510000000     1.326000000     3.240000000
H     3.883000000     0.590000000     3.724000000
H     2.681000000     1.508000000     3.682000000
O     7.154000000    -0.026000000     3.727000000
H     7.504000000    -0.763000000     4.229000000
H     6.220000000    -0.217000000     3.641000000
O    -0.741000000     5.084000000    -3.940000000
H    -0.675000000     4.138000000    -4.069000000
H    -1.589000000     5.209000000    -3.516000000
O     4.117000000    -5.193000000    -1.760000000
H     4.489000000    -4.919000000    -0.921000000
H     4.744000000    -4.881000000    -2.413000000
O     2.786000000     2.291000000     0.815000000
H     3.145000000     1.708000000     1.484000000
H     1.872000000     2.417000000     1.071000000
O    -3.436000000     2.574000000     4.009000000
H    -4.019000000     2.560000000     4.768000000
H    -3.093000000     1.683000000     3.954000000
O    -0.918000000    -3.383000000    -1.383000000
H    -0.328000000    -4.039000000    -1.754000000
H    -0.401000000    -2.577000000    -1.366000000
O     6.651000000    -0.237000000     0.126000000
H     5.940000000     0.160000000    -0.376000000
H     7.121000000     0.506000000     0.505000000
O    -7.887000000     3.417000000    -2.491000000
H    -6.940000000     3.281000000    -2.482000000
H    -8.144000000     3.255000000    -3.399000000
O    -0.260000000     3.032000000     4.265000000
H    -0.739000000     3.814000000     4.542000000
H    -0.943000000     2.390000000     4.071000000
O     0.480000000    -2.382000000     5.784000000
H     0.352000000    -2.915000000     6.569000000
H     0.276000000    -1.489000000     6.065000000
O     4.151000000    -1.958000000    -1.841000000
H     3.984000000    -2.878000000    -2.046000000
H     3.943000000    -1.878000000    -0.910000000
O    -1.474000000    -5.277000000     0.856000000
H    -0.962000000    -4.584000000     0.438000000
H    -0.820000000    -5.898000000     1.176000000
O    -6.808000000     0.428000000    -3.887000000
H    -6.417000000    -0.327000000    -3.448000000
H    -6.183000000     1.139000000    -3.742000000
O     2.055000000     2.410000000     5.762000000
H     2.532000000     3.216000000     5.565000000
H     1.169000000     2.569000000     5.438000000
O     0.996000000     0.995000000    -6.329000000
H     0.301000000     0.401000000    -6.614000000
H     1.806000000     0.568000000    -6.609000000
O     1.771000000    -3.881000000    -5.760000000
H     1.674000000    -3.771000000    -4.814000000
H     2.708000000    -3.770000000    -5.919000000
O     2.113000000     4.396000000    -3.631000000
H     1.985000000     3.501000000    -3.316000000
H     1.273000000     4.828000000    -3.473000000
