144
-2818.10851
O    -1.737000000     3.596000000    -5.488000000
H    -1.065000000     2.920000000    -5.391000000
H    -2.408000000     3.360000000    -4.848000000
O    -1.990000000     0.071000000     3.868000000
H    -2.854000000    -0.267000000     3.634000000
H    -1.376000000    -0.570000000     3.509000000
O    -4.815000000     5.382000000    -3.894000000
H    -5.264000000     4.669000000    -3.439000000
H    -4.001000000     5.502000000    -3.407000000
O    -1.523000000     2.929000000     3.569000000
H    -2.032000000     3.016000000     2.763000000
H    -1.725000000     2.049000000     3.886000000
O    -2.865000000     5.512000000    -1.856000000
H    -2.706000000     4.568000000    -1.865000000
H    -3.589000000     5.626000000    -1.239000000
O     2.847000000     1.747000000    -0.273000000
H     3.416000000     2.499000000    -0.105000000
H     2.283000000     1.697000000     0.498000000
O    -5.332000000     1.130000000    -6.148000000
H    -4.858000000     1.395000000    -5.360000000
H    -5.335000000     0.174000000    -6.116000000
O    -6.715000000    -0.639000000    -1.962000000
H    -5.959000000    -1.076000000    -2.353000000
H    -7.044000000    -0.064000000    -2.653000000
O    -0.526000000    -6.906000000    -2.200000000
H    -0.089000000    -6.119000000    -1.875000000
H     0.127000000    -7.331000000    -2.755000000
O    -5.072000000     1.345000000    -0.653000000
H    -5.371000000     0.574000000    -1.135000000
H    -4.315000000     1.037000000    -0.154000000
O     3.806000000     0.836000000     3.976000000
H     3.855000000     1.227000000     4.848000000
H     3.979000000    -0.094000000     4.121000000
O     0.324000000    -1.998000000     5.248000000
H     0.506000000    -1.079000000     5.442000000
H     1.182000000    -2.375000000     5.050000000
O    -2.040000000    -2.240000000     0.575000000
H    -1.957000000    -2.562000000    -0.323000000
H    -1.569000000    -1.407000000     0.575000000
O    -5.035000000    -3.198000000    -0.526000000
H    -4.284000000    -3.726000000    -0.799000000
H    -5.041000000    -2.458000000    -1.133000000
O    -4.234000000    -1.601000000    -2.653000000
H    -3.550000000    -0.937000000    -2.738000000
H    -4.038000000    -2.236000000    -3.342000000
O     3.373000000     4.422000000     0.686000000
H     3.198000000     4.018000000     1.536000000
H     3.326000000     5.363000000     0.853000000
O     1.090000000     3.489000000     4.802000000
H     1.207000000     4.296000000     5.303000000
H     0.247000000     3.600000000     4.362000000
O     3.271000000    -0.557000000    -1.839000000
H     2.934000000    -0.218000000    -1.010000000
H     3.887000000     0.111000000    -2.139000000
O     1.143000000    -4.659000000    -0.493000000
H     0.662000000    -4.471000000     0.313000000
H     2.006000000    -4.949000000    -0.195000000
O    -7.314000000     1.184000000    -3.710000000
H    -7.376000000     1.913000000    -3.093000000
H    -6.475000000     1.316000000    -4.152000000
O    -0.520000000     1.256000000    -4.641000000
H    -1.240000000     0.954000000    -4.088000000
H    -0.306000000     0.500000000    -5.189000000
O     5.057000000    -2.028000000     4.586000000
H     5.711000000    -2.159000000     3.899000000
H     4.611000000    -2.872000000     4.656000000
O    -2.829000000     3.872000000     1.198000000
H    -3.742000000     3.750000000     1.457000000
H    -2.729000000     3.331000000     0.415000000
O     2.703000000    -3.644000000     5.251000000
H     3.209000000    -4.451000000     5.342000000
H     3.065000000    -3.058000000     5.916000000
O     1.208000000    -5.046000000     3.072000000
H     1.647000000    -4.501000000     3.725000000
H     0.450000000    -5.408000000     3.531000000
O    -1.137000000     7.604000000    -1.374000000
H    -1.072000000     8.371000000    -1.943000000
H    -1.898000000     7.125000000    -1.704000000
O     3.821000000    -3.337000000    -0.673000000
H     4.318000000    -3.586000000    -1.452000000
H     3.048000000    -2.888000000    -1.016000000
O    -1.911000000    -2.870000000     4.257000000
H    -1.168000000    -2.780000000     4.854000000
H    -1.793000000    -3.732000000     3.858000000
O    -1.434000000     5.614000000     3.731000000
H    -1.318000000     5.664000000     2.782000000
H    -1.661000000     4.700000000     3.897000000
O     6.230000000    -1.825000000     1.943000000
H     5.311000000    -2.025000000     2.123000000
H     6.519000000    -2.531000000     1.365000000
O    -4.033000000     2.423000000    -4.226000000
H    -4.631000000     2.882000000    -3.636000000
H    -3.531000000     1.842000000    -3.655000000
O     2.867000000    -6.615000000     1.670000000
H     2.676000000    -7.414000000     2.161000000
H     2.236000000    -5.975000000     1.999000000
O     3.041000000     3.159000000     2.914000000
H     2.345000000     3.325000000     3.550000000
H     3.506000000     2.398000000     3.261000000
O     2.400000000     2.338000000    -3.023000000
H     2.794000000     2.144000000    -2.173000000
H     1.460000000     2.374000000    -2.849000000
O    -0.028000000     4.197000000    -2.532000000
H    -0.215000000     3.585000000    -3.244000000
H    -0.811000000     4.171000000    -1.983000000
O    -5.389000000     2.940000000     1.722000000
H    -5.585000000     2.220000000     1.122000000
H    -5.185000000     2.510000000     2.553000000
O    -2.441000000    -4.780000000     1.898000000
H    -2.159000000    -3.869000000     1.819000000
H    -2.968000000    -4.937000000     1.114000000
O     6.037000000     0.486000000    -1.900000000
H     5.955000000     0.756000000    -0.986000000
H     6.451000000    -0.376000000    -1.859000000
O    -4.018000000    -0.407000000     1.084000000
H    -4.275000000    -0.461000000     2.005000000
H    -3.691000000    -1.283000000     0.876000000
O     2.398000000    -1.030000000    -4.393000000
H     3.199000000    -1.554000000    -4.365000000
H     2.322000000    -0.662000000    -3.513000000
O    -5.430000000     3.485000000    -2.199000000
H    -6.081000000     3.921000000    -1.649000000
H    -5.232000000     2.671000000    -1.737000000
O     1.074000000     0.773000000     5.580000000
H     1.960000000     0.852000000     5.934000000
H     0.936000000     1.587000000     5.096000000
O     0.454000000    -0.862000000    -6.026000000
H     1.193000000    -0.741000000    -5.429000000
H     0.283000000    -1.804000000    -6.006000000
O    -1.140000000    -4.084000000    -2.193000000
H    -1.233000000    -3.927000000    -3.132000000
H    -0.204000000    -4.239000000    -2.067000000
O    -0.504000000     6.307000000     1.114000000
H    -0.607000000     6.788000000     0.293000000
H    -0.665000000     5.393000000     0.879000000
O     6.309000000     1.814000000     2.995000000
H     5.653000000     1.142000000     3.182000000
H     6.944000000     1.378000000     2.428000000
O     4.304000000    -3.855000000     1.774000000
H     4.140000000    -3.671000000     0.849000000
H     4.284000000    -4.810000000     1.835000000
O    -1.593000000     0.547000000     6.439000000
H    -0.710000000     0.561000000     6.070000000
H    -2.166000000     0.400000000     5.686000000
