144
-2770.96860
O     3.973000000     6.071000000     0.711000000
H     3.206000000     5.500000000     0.661000000
H     4.310000000     5.942000000     1.598000000
O    -1.696000000     6.798000000    -3.087000000
H    -1.720000000     7.571000000    -2.522000000
H    -1.081000000     6.205000000    -2.657000000
O    -1.446000000    -5.074000000     0.538000000
H    -1.242000000    -5.000000000    -0.395000000
H    -1.679000000    -4.184000000     0.803000000
O     6.134000000     1.117000000    -2.228000000
H     6.231000000     1.976000000    -1.817000000
H     5.523000000     1.265000000    -2.950000000
O     0.554000000    -5.896000000     2.383000000
H     1.319000000    -5.432000000     2.043000000
H    -0.189000000    -5.495000000     1.932000000
O     3.397000000    -1.892000000    -0.451000000
H     2.798000000    -2.100000000    -1.167000000
H     3.045000000    -1.086000000    -0.071000000
O    -3.574000000    -4.162000000     3.545000000
H    -3.258000000    -3.597000000     2.839000000
H    -2.804000000    -4.664000000     3.813000000
O    -0.558000000    -4.215000000     6.138000000
H     0.227000000    -3.976000000     5.645000000
H    -1.209000000    -4.419000000     5.466000000
O     3.438000000     3.548000000     4.160000000
H     3.333000000     4.471000000     3.926000000
H     3.879000000     3.159000000     3.405000000
O     6.443000000     3.595000000    -1.264000000
H     7.293000000     3.696000000    -0.836000000
H     6.205000000     4.482000000    -1.536000000
O     1.211000000    -1.305000000    -3.837000000
H     1.887000000    -0.811000000    -3.372000000
H     1.640000000    -1.598000000    -4.641000000
O    -2.240000000    -1.521000000     5.058000000
H    -2.562000000    -2.246000000     5.594000000
H    -1.908000000    -1.939000000     4.263000000
O    -1.353000000     1.450000000     3.385000000
H    -1.622000000     0.534000000     3.311000000
H    -0.684000000     1.448000000     4.069000000
O    -2.249000000    -3.404000000    -5.025000000
H    -1.445000000    -3.895000000    -5.197000000
H    -1.954000000    -2.504000000    -4.888000000
O    -3.564000000    -0.024000000    -2.659000000
H    -2.648000000    -0.298000000    -2.613000000
H    -3.525000000     0.898000000    -2.917000000
O     1.565000000     4.870000000     0.124000000
H     1.094000000     5.464000000     0.708000000
H     1.167000000     4.014000000     0.281000000
O     0.891000000     0.985000000     4.992000000
H     0.774000000     1.111000000     5.934000000
H     1.828000000     0.825000000     4.886000000
O     2.735000000    -1.452000000    -6.116000000
H     3.486000000    -1.882000000    -6.526000000
H     1.984000000    -1.732000000    -6.639000000
O     3.357000000     4.907000000    -2.219000000
H     2.746000000     4.916000000    -2.956000000
H     2.819000000     5.131000000    -1.460000000
O     5.919000000    -2.559000000     0.633000000
H     6.317000000    -1.759000000     0.975000000
H     5.176000000    -2.254000000     0.114000000
O    -3.209000000    -7.418000000     0.773000000
H    -2.625000000    -7.344000000     0.018000000
H    -2.724000000    -7.012000000     1.491000000
O     1.022000000    -3.147000000    -1.820000000
H     0.709000000    -2.502000000    -2.455000000
H     0.702000000    -3.985000000    -2.154000000
O    -1.302000000    -0.923000000    -4.864000000
H    -0.469000000    -1.173000000    -4.464000000
H    -1.110000000    -0.107000000    -5.326000000
O    -5.297000000    -2.618000000     0.504000000
H    -5.376000000    -1.769000000     0.070000000
H    -4.489000000    -2.552000000     1.014000000
O    -5.824000000    -1.680000000    -3.588000000
H    -6.138000000    -0.790000000    -3.748000000
H    -4.870000000    -1.603000000    -3.600000000
O    -0.342000000     1.496000000    -6.256000000
H    -0.803000000     2.283000000    -5.966000000
H     0.127000000     1.769000000    -7.044000000
O    -3.918000000     3.080000000     2.484000000
H    -3.099000000     2.614000000     2.652000000
H    -3.644000000     3.920000000     2.116000000
O    -3.880000000     1.878000000    -4.543000000
H    -3.303000000     2.128000000    -5.266000000
H    -4.348000000     2.682000000    -4.321000000
O    -1.338000000     4.034000000    -1.619000000
H    -1.020000000     3.752000000    -0.761000000
H    -2.124000000     4.545000000    -1.427000000
O    -6.401000000    -2.615000000     4.347000000
H    -7.181000000    -2.753000000     3.809000000
H    -5.909000000    -3.433000000     4.270000000
O    -4.584000000    -3.950000000    -1.602000000
H    -4.740000000    -3.462000000    -0.794000000
H    -3.655000000    -3.815000000    -1.788000000
O     4.416000000     2.716000000     1.568000000
H     5.153000000     3.229000000     1.899000000
H     4.614000000     2.583000000     0.641000000
O    -6.087000000    -0.400000000    -0.823000000
H    -6.700000000     0.200000000    -1.249000000
H    -5.300000000    -0.365000000    -1.366000000
O     4.254000000     2.675000000    -4.236000000
H     3.973000000     3.343000000    -3.612000000
H     3.770000000     2.877000000    -5.037000000
O    -2.126000000    -6.201000000     4.736000000
H    -2.399000000    -7.109000000     4.602000000
H    -2.385000000    -6.004000000     5.636000000
O     4.510000000     0.878000000    -6.543000000
H     3.847000000     0.213000000    -6.729000000
H     4.300000000     1.185000000    -5.661000000
O    -6.083000000    -0.227000000     2.286000000
H    -5.747000000    -1.021000000     1.870000000
H    -5.363000000     0.077000000     2.838000000
O     1.455000000     4.693000000    -4.191000000
H     1.607000000     4.965000000    -5.096000000
H     0.629000000     4.211000000    -4.221000000
O    -1.261000000     3.839000000    -4.338000000
H    -1.226000000     3.811000000    -3.382000000
H    -2.092000000     4.271000000    -4.536000000
O    -1.205000000     2.468000000     1.049000000
H    -1.240000000     1.758000000     0.408000000
H    -1.206000000     2.024000000     1.897000000
O     2.062000000    -2.103000000     6.505000000
H     1.568000000    -2.346000000     5.723000000
H     2.752000000    -1.523000000     6.183000000
O     1.408000000    -3.338000000     4.082000000
H     0.711000000    -3.472000000     3.440000000
H     1.998000000    -4.081000000     3.954000000
O     6.619000000     0.240000000     2.017000000
H     7.112000000    -0.057000000     2.781000000
H     7.210000000     0.096000000     1.278000000
O     2.354000000    -4.199000000     0.744000000
H     1.548000000    -3.854000000     0.359000000
H     2.953000000    -3.453000000     0.754000000
O     4.446000000    -0.758000000     3.329000000
H     3.925000000    -0.190000000     3.895000000
H     5.026000000    -0.160000000     2.857000000
O    -1.926000000     4.882000000     1.770000000
H    -1.659000000     4.129000000     1.244000000
H    -2.362000000     5.466000000     1.149000000
O    -5.989000000    -5.354000000     2.647000000
H    -5.848000000    -6.007000000     3.332000000
H    -5.148000000    -4.905000000     2.565000000
O    -4.715000000    -0.498000000     4.457000000
H    -3.904000000    -0.897000000     4.774000000
H    -5.380000000    -1.175000000     4.583000000
