144
-2811.34606
O    -4.716000000     3.760000000    -1.305000000
H    -4.282000000     3.139000000    -0.721000000
H    -4.018000000     4.077000000    -1.878000000
O     2.468000000     0.361000000     3.287000000
H     2.927000000    -0.141000000     2.613000000
H     1.718000000     0.744000000     2.832000000
O    -0.857000000    -2.425000000     5.362000000
H    -0.641000000    -2.825000000     4.520000000
H    -1.794000000    -2.240000000     5.306000000
O    -2.251000000     6.281000000     5.090000000
H    -2.037000000     5.810000000     4.285000000
H    -2.377000000     7.188000000     4.811000000
O    -4.912000000     5.873000000     0.297000000
H    -5.055000000     6.682000000    -0.195000000
H    -4.997000000     5.178000000    -0.355000000
O     0.134000000    -4.255000000    -4.269000000
H     0.928000000    -3.767000000    -4.051000000
H    -0.347000000    -3.678000000    -4.861000000
O     5.476000000    -2.345000000    -1.652000000
H     5.370000000    -1.790000000    -2.425000000
H     5.527000000    -1.729000000    -0.921000000
O     4.156000000    -3.419000000     2.777000000
H     4.536000000    -3.957000000     2.082000000
H     4.172000000    -2.528000000     2.425000000
O     3.717000000     4.210000000    -2.604000000
H     3.768000000     4.983000000    -3.166000000
H     4.530000000     4.227000000    -2.099000000
O     2.357000000    -2.659000000    -4.140000000
H     1.601000000    -2.099000000    -4.316000000
H     3.114000000    -2.119000000    -4.371000000
O    -3.086000000    -1.763000000    -2.193000000
H    -2.509000000    -2.521000000    -2.292000000
H    -3.906000000    -2.128000000    -1.861000000
O     7.321000000    -3.647000000     1.038000000
H     7.181000000    -2.735000000     0.781000000
H     7.676000000    -3.593000000     1.925000000
O     0.039000000     2.597000000     3.049000000
H    -0.823000000     2.662000000     3.460000000
H     0.018000000     3.244000000     2.345000000
O    -4.266000000     3.023000000    -4.832000000
H    -4.195000000     2.244000000    -5.384000000
H    -4.911000000     2.786000000    -4.166000000
O    -1.525000000     7.356000000     2.248000000
H    -1.998000000     6.591000000     1.921000000
H    -1.985000000     8.104000000     1.867000000
O     1.581000000    -5.109000000     1.318000000
H     2.163000000    -5.869000000     1.336000000
H     1.748000000    -4.699000000     0.470000000
O     4.466000000    -0.708000000    -3.898000000
H     5.360000000    -0.391000000    -3.775000000
H     3.956000000     0.080000000    -4.086000000
O     2.010000000    -4.456000000     4.330000000
H     2.843000000    -4.070000000     4.058000000
H     1.695000000    -4.918000000     3.553000000
O    -6.352000000     2.519000000    -3.346000000
H    -6.069000000     1.691000000    -2.960000000
H    -6.089000000     3.183000000    -2.709000000
O    -3.689000000    -2.501000000     2.265000000
H    -3.159000000    -3.046000000     1.684000000
H    -3.101000000    -1.796000000     2.535000000
O    -5.067000000     0.291000000     1.732000000
H    -4.455000000     0.626000000     1.077000000
H    -4.544000000    -0.308000000     2.265000000
O    -0.902000000    -6.012000000     1.098000000
H    -1.590000000    -5.355000000     0.992000000
H    -0.142000000    -5.517000000     1.403000000
O    -1.387000000     0.170000000    -3.492000000
H    -2.169000000    -0.259000000    -3.145000000
H    -1.660000000     1.074000000    -3.649000000
O    -2.657000000     0.002000000     3.189000000
H    -3.243000000     0.249000000     3.904000000
H    -2.191000000     0.809000000     2.972000000
O     0.963000000    -0.303000000    -4.797000000
H     0.116000000    -0.038000000    -4.438000000
H     1.589000000     0.308000000    -4.408000000
O    -6.308000000     2.464000000     2.819000000
H    -5.645000000     1.804000000     2.616000000
H    -6.926000000     2.013000000     3.395000000
O    -2.487000000     2.908000000     3.822000000
H    -2.912000000     3.465000000     3.169000000
H    -2.868000000     3.183000000     4.656000000
O    -7.886000000     0.260000000     0.797000000
H    -7.019000000     0.295000000     1.201000000
H    -8.252000000     1.132000000     0.939000000
O     3.305000000     1.701000000    -4.006000000
H     3.117000000     2.258000000    -4.761000000
H     3.393000000     2.311000000    -3.274000000
O     0.340000000     3.318000000    -3.437000000
H     0.011000000     3.724000000    -2.635000000
H     1.207000000     2.990000000    -3.201000000
O     1.992000000    -5.225000000    -1.645000000
H     1.468000000    -4.635000000    -2.186000000
H     1.735000000    -6.102000000    -1.929000000
O     6.307000000     3.157000000     1.698000000
H     7.095000000     2.626000000     1.814000000
H     5.589000000     2.576000000     1.949000000
O    -4.742000000     0.726000000    -2.162000000
H    -4.412000000     1.115000000    -1.352000000
H    -4.271000000    -0.104000000    -2.239000000
O    -2.325000000    -4.283000000    -2.240000000
H    -3.031000000    -4.852000000    -2.548000000
H    -1.583000000    -4.493000000    -2.807000000
O    -2.438000000     6.384000000    -2.816000000
H    -2.027000000     7.234000000    -2.661000000
H    -1.991000000     5.789000000    -2.214000000
O     4.931000000    -5.133000000    -2.450000000
H     5.171000000    -4.238000000    -2.207000000
H     4.080000000    -5.273000000    -2.035000000
O    -0.355000000     5.018000000    -1.282000000
H     0.352000000     5.469000000    -0.821000000
H    -0.684000000     4.379000000    -0.650000000
O     3.399000000     4.100000000     3.623000000
H     3.144000000     4.864000000     3.106000000
H     2.639000000     3.519000000     3.582000000
O    -1.523000000    -2.256000000    -5.181000000
H    -2.404000000    -1.917000000    -5.341000000
H    -1.064000000    -1.538000000    -4.746000000
O    -2.892000000     5.053000000     2.094000000
H    -3.750000000     5.201000000     1.696000000
H    -2.443000000     4.466000000     1.486000000
O     4.937000000    -0.961000000     1.871000000
H     5.173000000    -0.563000000     2.710000000
H     5.733000000    -0.897000000     1.344000000
O    -2.967000000    -4.369000000     0.451000000
H    -2.635000000    -4.369000000    -0.447000000
H    -3.916000000    -4.445000000     0.355000000
O    -5.298000000    -2.873000000    -1.014000000
H    -5.662000000    -3.444000000    -0.338000000
H    -6.012000000    -2.274000000    -1.232000000
O     6.326000000     3.053000000    -1.966000000
H     6.867000000     3.357000000    -1.237000000
H     6.347000000     2.098000000    -1.898000000
O     1.998000000     5.614000000    -0.288000000
H     2.859000000     5.470000000    -0.680000000
H     2.132000000     5.459000000     0.647000000
O    -7.090000000     5.181000000     2.226000000
H    -6.442000000     4.526000000     1.969000000
H    -6.604000000     6.006000000     2.241000000
O     7.458000000    -0.890000000     0.424000000
H     8.060000000    -0.950000000    -0.319000000
H     7.990000000    -0.531000000     1.134000000
O    -0.421000000    -2.735000000     2.728000000
H     0.530000000    -2.631000000     2.696000000
H    -0.756000000    -2.052000000     2.148000000
