144
-2814.93422
O    -2.724000000     2.343000000    -2.941000000
H    -3.036000000     1.936000000    -2.133000000
H    -1.928000000     1.859000000    -3.162000000
O     2.062000000    -0.973000000     4.584000000
H     2.876000000    -1.059000000     5.080000000
H     1.386000000    -0.855000000     5.251000000
O    -0.813000000    -4.655000000     4.347000000
H    -0.452000000    -5.486000000     4.038000000
H    -1.268000000    -4.293000000     3.587000000
O    -3.343000000     2.758000000     2.784000000
H    -2.443000000     3.079000000     2.848000000
H    -3.261000000     1.898000000     2.370000000
O    -5.747000000    -0.163000000    -2.796000000
H    -5.255000000     0.069000000    -3.584000000
H    -5.130000000    -0.019000000    -2.078000000
O     5.759000000     3.274000000    -0.508000000
H     5.316000000     3.320000000     0.340000000
H     6.030000000     4.175000000    -0.685000000
O     1.259000000    -3.039000000     2.806000000
H     0.305000000    -3.048000000     2.729000000
H     1.470000000    -2.143000000     3.066000000
O    -0.638000000     3.588000000     2.563000000
H     0.025000000     3.889000000     3.184000000
H    -0.145000000     3.371000000     1.772000000
O     3.381000000     4.114000000    -2.374000000
H     3.818000000     3.303000000    -2.114000000
H     3.919000000     4.809000000    -1.994000000
O    -0.787000000     2.080000000    -4.914000000
H    -1.096000000     2.974000000    -5.060000000
H    -0.765000000     1.688000000    -5.787000000
O     1.607000000    -1.838000000    -4.885000000
H     2.032000000    -2.607000000    -5.265000000
H     2.183000000    -1.576000000    -4.166000000
O    -3.749000000    -0.668000000     6.357000000
H    -3.539000000     0.233000000     6.112000000
H    -2.897000000    -1.089000000     6.475000000
O    -0.488000000    -4.864000000    -0.107000000
H    -0.303000000    -5.389000000    -0.886000000
H     0.216000000    -5.084000000     0.503000000
O     2.149000000     2.148000000    -6.617000000
H     2.149000000     2.837000000    -5.953000000
H     3.056000000     1.846000000    -6.649000000
O     5.913000000    -2.302000000    -2.463000000
H     6.828000000    -2.552000000    -2.336000000
H     5.437000000    -3.132000000    -2.476000000
O    -6.170000000     0.041000000     1.569000000
H    -5.279000000    -0.198000000     1.313000000
H    -6.059000000     0.554000000     2.369000000
O    -4.371000000    -3.082000000    -2.540000000
H    -4.889000000    -2.405000000    -2.105000000
H    -4.036000000    -3.624000000    -1.825000000
O    -0.552000000    -2.694000000    -1.871000000
H    -0.397000000    -3.399000000    -1.242000000
H    -0.242000000    -1.905000000    -1.426000000
O    -3.955000000    -2.269000000     3.908000000
H    -3.857000000    -1.674000000     4.651000000
H    -4.899000000    -2.402000000     3.829000000
O     8.224000000     1.343000000    -0.961000000
H     7.900000000     0.529000000    -0.576000000
H     7.571000000     2.000000000    -0.717000000
O    -4.301000000     0.714000000    -4.833000000
H    -3.837000000     0.157000000    -5.458000000
H    -3.620000000     1.272000000    -4.458000000
O     5.482000000    -2.021000000     2.053000000
H     5.358000000    -2.646000000     2.767000000
H     4.664000000    -2.059000000     1.557000000
O    -4.186000000     4.503000000    -4.310000000
H    -3.998000000     3.859000000    -3.626000000
H    -5.012000000     4.904000000    -4.041000000
O     5.180000000     1.571000000    -2.832000000
H     5.325000000     2.020000000    -1.999000000
H     5.978000000     1.735000000    -3.335000000
O    -8.970000000     1.027000000     1.483000000
H    -8.171000000     0.529000000     1.306000000
H    -9.298000000     1.269000000     0.618000000
O     6.679000000    -0.685000000    -0.009000000
H     6.482000000    -1.266000000    -0.743000000
H     6.206000000    -1.065000000     0.732000000
O    -1.254000000    -1.948000000     6.356000000
H    -1.686000000    -2.677000000     6.801000000
H    -1.031000000    -2.293000000     5.491000000
O    -3.171000000     1.911000000     5.442000000
H    -3.508000000     2.411000000     6.185000000
H    -3.564000000     2.328000000     4.675000000
O    -7.389000000    -1.331000000    -4.284000000
H    -7.313000000    -2.261000000    -4.499000000
H    -6.732000000    -1.187000000    -3.604000000
O     3.756000000    -0.519000000    -3.187000000
H     4.123000000     0.357000000    -3.307000000
H     4.318000000    -0.927000000    -2.529000000
O     0.699000000     3.466000000    -2.529000000
H     1.641000000     3.636000000    -2.519000000
H     0.549000000     3.003000000    -3.354000000
O    -5.137000000    -2.221000000     0.195000000
H    -4.739000000    -1.377000000     0.406000000
H    -6.079000000    -2.052000000     0.211000000
O    -2.848000000    -1.057000000    -5.970000000
H    -2.238000000    -0.533000000    -6.489000000
H    -2.287000000    -1.598000000    -5.415000000
O    -8.184000000     3.757000000     0.131000000
H    -7.545000000     4.285000000     0.609000000
H    -7.681000000     3.353000000    -0.576000000
O    -2.612000000    -4.962000000    -3.738000000
H    -2.404000000    -4.047000000    -3.929000000
H    -2.648000000    -5.005000000    -2.783000000
O    -5.456000000    -4.602000000     1.201000000
H    -6.398000000    -4.745000000     1.109000000
H    -5.325000000    -3.691000000     0.937000000
O    -1.527000000     5.063000000    -1.639000000
H    -0.646000000     4.712000000    -1.771000000
H    -2.109000000     4.335000000    -1.858000000
O    -0.303000000     2.448000000     5.573000000
H    -0.342000000     2.561000000     4.623000000
H    -1.152000000     2.072000000     5.805000000
O    -0.188000000    -0.169000000    -6.826000000
H     0.457000000    -0.443000000    -6.175000000
H     0.137000000    -0.528000000    -7.651000000
O    -5.868000000     2.201000000    -0.579000000
H    -5.111000000     1.648000000    -0.771000000
H    -6.402000000     1.677000000     0.018000000
O    -1.182000000    -2.511000000    -4.421000000
H    -0.384000000    -2.177000000    -4.829000000
H    -0.957000000    -2.608000000    -3.496000000
O     0.482000000     3.081000000     0.025000000
H     0.675000000     3.329000000    -0.879000000
H     0.359000000     2.133000000    -0.008000000
O    -8.554000000     0.194000000    -1.659000000
H    -8.995000000     1.014000000    -1.883000000
H    -7.843000000     0.123000000    -2.295000000
O     4.546000000     2.904000000     3.086000000
H     4.870000000     2.683000000     3.959000000
H     4.751000000     2.136000000     2.553000000
O     4.077000000    -3.766000000    -0.425000000
H     3.567000000    -4.073000000     0.324000000
H     3.902000000    -4.408000000    -1.113000000
O     3.192000000    -4.482000000     2.179000000
H     3.949000000    -4.268000000     2.725000000
H     2.531000000    -3.834000000     2.423000000
O    -4.278000000     4.563000000     0.675000000
H    -4.699000000     3.864000000     0.175000000
H    -4.069000000     4.162000000     1.518000000
O    -1.672000000    -2.975000000     2.519000000
H    -2.366000000    -2.548000000     3.022000000
H    -1.857000000    -2.741000000     1.609000000
