144
-2839.64415
O    -4.080000000     1.539000000    -4.529000000
H    -3.501000000     1.400000000    -3.779000000
H    -4.307000000     0.656000000    -4.822000000
O     0.661000000    -0.038000000     7.517000000
H     0.267000000     0.645000000     6.974000000
H     1.482000000     0.346000000     7.826000000
O     2.511000000     3.631000000     0.838000000
H     3.104000000     4.355000000     1.039000000
H     3.059000000     2.992000000     0.382000000
O    -1.291000000    -6.826000000    -1.487000000
H    -1.341000000    -7.744000000    -1.222000000
H    -1.682000000    -6.345000000    -0.759000000
O    -1.092000000     1.862000000     6.126000000
H    -1.086000000     1.692000000     5.184000000
H    -1.962000000     1.584000000     6.413000000
O     3.900000000     1.952000000    -0.570000000
H     4.069000000     1.456000000     0.231000000
H     4.765000000     2.246000000    -0.856000000
O     1.970000000    -4.941000000    -4.047000000
H     1.523000000    -5.776000000    -4.185000000
H     1.485000000    -4.523000000    -3.336000000
O    -0.084000000    -4.293000000    -2.338000000
H    -0.358000000    -5.096000000    -1.896000000
H    -0.895000000    -3.921000000    -2.684000000
O     2.017000000     3.104000000     6.279000000
H     1.062000000     3.116000000     6.330000000
H     2.216000000     2.381000000     5.685000000
O    -0.312000000     2.088000000     3.279000000
H    -1.229000000     1.822000000     3.217000000
H    -0.239000000     2.837000000     2.686000000
O    -5.830000000     3.687000000    -4.286000000
H    -6.515000000     3.387000000    -4.884000000
H    -5.126000000     3.047000000    -4.386000000
O     4.471000000    -0.264000000     4.101000000
H     3.547000000    -0.457000000     4.261000000
H     4.593000000     0.621000000     4.446000000
O    -2.754000000     7.051000000    -4.992000000
H    -2.828000000     7.222000000    -5.931000000
H    -2.523000000     6.124000000    -4.935000000
O     2.362000000    -1.914000000    -1.506000000
H     1.562000000    -1.526000000    -1.152000000
H     2.266000000    -1.837000000    -2.455000000
O    -0.140000000     4.197000000     1.401000000
H    -0.571000000     4.774000000     0.770000000
H     0.763000000     4.134000000     1.090000000
O    -4.326000000    -5.431000000    -1.196000000
H    -4.284000000    -4.626000000    -0.680000000
H    -5.226000000    -5.460000000    -1.522000000
O    -1.781000000     4.237000000    -4.614000000
H    -1.850000000     3.533000000    -3.970000000
H    -2.023000000     3.827000000    -5.444000000
O     2.342000000     2.056000000     3.701000000
H     1.508000000     1.886000000     3.264000000
H     2.433000000     3.008000000     3.682000000
O    -2.818000000    -3.640000000    -3.008000000
H    -3.306000000    -4.283000000    -2.494000000
H    -3.281000000    -2.815000000    -2.861000000
O     1.348000000     5.279000000    -4.862000000
H     1.761000000     5.614000000    -4.066000000
H     0.417000000     5.228000000    -4.646000000
O    -3.279000000    -3.099000000    -0.041000000
H    -2.733000000    -2.577000000    -0.629000000
H    -3.782000000    -2.452000000     0.454000000
O     5.158000000    -2.239000000    -1.246000000
H     4.243000000    -2.117000000    -1.499000000
H     5.116000000    -2.570000000    -0.349000000
O    -4.451000000    -1.107000000    -5.926000000
H    -3.503000000    -0.983000000    -5.977000000
H    -4.617000000    -1.896000000    -6.442000000
O    -2.635000000     0.805000000     1.192000000
H    -3.140000000     0.036000000     0.927000000
H    -1.722000000     0.548000000     1.061000000
O     4.406000000    -3.134000000     5.096000000
H     4.121000000    -3.842000000     4.517000000
H     4.387000000    -2.352000000     4.544000000
O     3.160000000     3.173000000    -5.044000000
H     2.580000000     3.904000000    -5.255000000
H     2.849000000     2.858000000    -4.195000000
O     1.793000000    -4.262000000     0.377000000
H     1.938000000    -3.700000000    -0.384000000
H     1.318000000    -5.017000000     0.031000000
O    -6.492000000    -0.030000000    -0.730000000
H    -6.912000000     0.524000000    -0.073000000
H    -6.670000000     0.408000000    -1.562000000
O    -2.783000000     1.089000000    -8.098000000
H    -2.549000000     0.405000000    -8.726000000
H    -2.412000000     0.788000000    -7.268000000
O    -3.273000000     1.538000000     3.640000000
H    -3.071000000     1.172000000     2.779000000
H    -3.391000000     2.475000000     3.480000000
O    -4.692000000    -0.996000000     0.912000000
H    -5.181000000    -1.356000000     1.651000000
H    -5.361000000    -0.613000000     0.345000000
O     4.481000000    -2.664000000     1.536000000
H     3.641000000    -3.093000000     1.375000000
H     4.833000000    -3.108000000     2.308000000
O    -2.192000000    -1.278000000     5.718000000
H    -2.214000000    -1.746000000     6.552000000
H    -1.376000000    -1.563000000     5.305000000
O    -3.375000000     4.630000000     2.356000000
H    -3.005000000     4.108000000     1.644000000
H    -3.338000000     5.531000000     2.037000000
O     0.916000000     4.314000000    -1.988000000
H     1.812000000     4.019000000    -1.821000000
H     0.390000000     3.515000000    -1.952000000
O    -4.445000000    -1.225000000    -2.763000000
H    -3.999000000    -0.379000000    -2.730000000
H    -4.808000000    -1.270000000    -3.647000000
O    -2.313000000    -5.471000000     1.052000000
H    -2.689000000    -4.663000000     0.701000000
H    -1.564000000    -5.180000000     1.572000000
O     1.705000000     4.746000000     3.531000000
H     0.899000000     4.581000000     4.019000000
H     1.410000000     4.964000000     2.647000000
O     0.558000000     1.767000000    -4.609000000
H     1.233000000     1.800000000    -3.931000000
H    -0.153000000     2.308000000    -4.264000000
O    -0.649000000     6.204000000    -0.441000000
H    -0.434000000     7.105000000    -0.682000000
H    -0.253000000     5.671000000    -1.130000000
O    -1.713000000     0.223000000    -5.456000000
H    -0.923000000     0.733000000    -5.636000000
H    -1.799000000     0.243000000    -4.503000000
O     7.249000000    -1.133000000     3.009000000
H     7.825000000    -1.617000000     2.417000000
H     6.456000000    -0.974000000     2.496000000
O     1.410000000    -1.095000000    -3.924000000
H     0.634000000    -0.616000000    -4.216000000
H     1.458000000    -1.852000000    -4.507000000
O     2.452000000     1.359000000    -2.898000000
H     3.109000000     1.536000000    -2.224000000
H     2.141000000     0.475000000    -2.702000000
O     4.647000000     0.309000000     1.223000000
H     4.484000000    -0.581000000     0.908000000
H     4.523000000     0.254000000     2.170000000
O     3.524000000    -4.990000000     3.468000000
H     2.820000000    -5.393000000     3.976000000
H     3.585000000    -5.526000000     2.677000000
O    -2.872000000     3.284000000    -0.003000000
H    -2.660000000     3.377000000    -0.932000000
H    -2.696000000     2.364000000     0.192000000
O    -0.091000000    -4.590000000     2.575000000
H     0.215000000    -4.790000000     3.460000000
H     0.707000000    -4.554000000     2.048000000
