144
-2826.74031
O     4.692000000    -3.116000000    -0.214000000
H     4.688000000    -4.064000000    -0.352000000
H     4.664000000    -3.013000000     0.737000000
O    -3.577000000     1.655000000    -4.741000000
H    -2.984000000     1.206000000    -4.139000000
H    -3.116000000     1.652000000    -5.579000000
O     0.821000000     0.995000000     5.100000000
H     0.893000000     1.253000000     6.018000000
H     1.725000000     0.959000000     4.789000000
O    -0.638000000    -3.983000000     1.402000000
H    -0.773000000    -3.560000000     0.554000000
H    -1.107000000    -3.427000000     2.024000000
O    -2.526000000     1.222000000     5.180000000
H    -1.998000000     1.969000000     4.896000000
H    -3.167000000     1.102000000     4.479000000
O     6.369000000     1.904000000     0.574000000
H     6.491000000     1.084000000     1.053000000
H     5.430000000     2.077000000     0.631000000
O     4.830000000    -3.453000000     2.587000000
H     4.945000000    -2.983000000     3.412000000
H     4.080000000    -4.028000000     2.740000000
O    -5.052000000     6.423000000    -1.675000000
H    -4.358000000     6.973000000    -1.311000000
H    -4.618000000     5.595000000    -1.880000000
O     2.837000000    -3.028000000    -3.460000000
H     2.578000000    -2.119000000    -3.609000000
H     3.276000000    -3.016000000    -2.609000000
O    -1.099000000    -1.182000000     5.693000000
H    -0.549000000    -0.467000000     5.374000000
H    -1.988000000    -0.827000000     5.673000000
O    -3.059000000     4.967000000    -4.444000000
H    -3.867000000     4.919000000    -3.933000000
H    -2.742000000     4.065000000    -4.477000000
O    -4.801000000     2.769000000     2.188000000
H    -4.971000000     2.223000000     1.421000000
H    -5.658000000     3.125000000     2.424000000
O     0.847000000    -1.578000000     7.559000000
H     0.712000000    -2.102000000     8.348000000
H     0.039000000    -1.687000000     7.058000000
O     1.607000000    -6.401000000    -1.967000000
H     1.674000000    -5.780000000    -1.243000000
H     0.739000000    -6.242000000    -2.339000000
O    -0.589000000     3.279000000     4.180000000
H     0.100000000     3.740000000     4.659000000
H    -0.208000000     2.426000000     3.974000000
O     5.394000000    -2.213000000    -2.709000000
H     5.063000000    -2.180000000    -1.812000000
H     5.862000000    -3.046000000    -2.762000000
O    -2.713000000    -5.438000000    -1.359000000
H    -3.570000000    -5.527000000    -1.777000000
H    -2.522000000    -4.501000000    -1.403000000
O     5.546000000    -2.383000000     4.919000000
H     4.681000000    -2.121000000     5.234000000
H     6.132000000    -2.205000000     5.655000000
O     1.384000000     4.193000000    -1.221000000
H     1.677000000     3.390000000    -1.653000000
H     1.653000000     4.895000000    -1.813000000
O    -4.830000000     1.370000000    -0.168000000
H    -4.052000000     1.630000000    -0.662000000
H    -4.656000000     0.465000000     0.093000000
O    -2.355000000    -1.269000000    -5.342000000
H    -2.162000000    -1.002000000    -4.443000000
H    -2.526000000    -2.209000000    -5.282000000
O    -2.377000000    -2.915000000    -1.747000000
H    -1.528000000    -2.799000000    -2.174000000
H    -2.986000000    -2.407000000    -2.284000000
O     2.095000000    -4.416000000     0.296000000
H     1.654000000    -4.506000000     1.141000000
H     2.881000000    -3.905000000     0.489000000
O    -1.969000000    -2.634000000     3.393000000
H    -1.551000000    -2.289000000     4.181000000
H    -2.904000000    -2.641000000     3.601000000
O    -4.841000000    -0.506000000    -6.174000000
H    -3.938000000    -0.690000000    -5.914000000
H    -5.178000000     0.064000000    -5.484000000
O     6.130000000    -0.308000000     2.821000000
H     6.175000000    -1.234000000     3.056000000
H     6.409000000     0.154000000     3.612000000
O    -1.586000000    -0.197000000    -8.094000000
H    -1.214000000     0.684000000    -8.065000000
H    -1.807000000    -0.394000000    -7.184000000
O    -3.241000000    -0.261000000     2.812000000
H    -3.525000000    -0.033000000     1.927000000
H    -2.904000000    -1.153000000     2.733000000
O     3.309000000    -0.975000000     5.672000000
H     2.492000000    -1.151000000     6.138000000
H     3.774000000    -0.354000000     6.232000000
O     2.634000000    -0.143000000    -4.282000000
H     3.360000000     0.301000000    -4.719000000
H     2.240000000     0.531000000    -3.729000000
O     2.380000000     3.226000000    -3.669000000
H     1.599000000     2.721000000    -3.895000000
H     2.823000000     3.369000000    -4.506000000
O    -6.622000000     4.583000000    -0.149000000
H    -6.834000000     5.447000000    -0.502000000
H    -5.801000000     4.344000000    -0.578000000
O    -3.407000000     5.232000000     1.666000000
H    -3.707000000     4.371000000     1.957000000
H    -2.642000000     5.048000000     1.122000000
O    -4.394000000    -1.093000000    -3.074000000
H    -3.664000000    -0.495000000    -2.913000000
H    -5.175000000    -0.577000000    -2.877000000
O    -0.179000000    -2.883000000    -3.850000000
H     0.615000000    -3.369000000    -3.627000000
H     0.064000000    -2.370000000    -4.622000000
O    -3.636000000    -1.041000000     0.028000000
H    -3.024000000    -1.777000000     0.001000000
H    -4.495000000    -1.439000000    -0.113000000
O     2.712000000    -4.711000000     3.620000000
H     1.921000000    -4.334000000     4.006000000
H     2.428000000    -5.553000000     3.266000000
O     0.120000000     1.827000000    -4.456000000
H    -0.059000000     1.541000000    -5.351000000
H    -0.637000000     1.527000000    -3.953000000
O     0.713000000     4.448000000     1.346000000
H     1.305000000     3.874000000     1.831000000
H     0.838000000     4.201000000     0.429000000
O    -4.590000000     3.751000000    -2.234000000
H    -5.369000000     3.617000000    -2.774000000
H    -4.029000000     3.001000000    -2.434000000
O    -2.503000000    -4.082000000    -4.895000000
H    -2.933000000    -4.881000000    -4.590000000
H    -1.631000000    -4.113000000    -4.500000000
O     1.038000000    -1.282000000    -6.320000000
H     1.689000000    -0.980000000    -5.686000000
H     0.827000000    -0.503000000    -6.835000000
O    -6.336000000     0.468000000    -2.518000000
H    -5.976000000     1.142000000    -1.942000000
H    -7.282000000     0.612000000    -2.493000000
O     2.434000000     1.522000000    -0.802000000
H     1.647000000     1.005000000    -0.625000000
H     2.767000000     1.754000000     0.065000000
O     3.134000000     2.666000000     1.758000000
H     3.087000000     2.088000000     2.520000000
H     3.689000000     3.392000000     2.043000000
O     3.445000000     1.092000000     3.852000000
H     4.038000000     0.397000000     3.567000000
H     3.926000000     1.548000000     4.543000000
O    -1.508000000     4.502000000    -0.920000000
H    -0.638000000     4.106000000    -0.865000000
H    -2.046000000     3.839000000    -1.353000000
O     0.561000000    -3.730000000     5.159000000
H     0.839000000    -2.946000000     5.632000000
H    -0.107000000    -3.417000000     4.549000000
