144
-2822.59310
O     4.316000000    -6.230000000    -1.878000000
H     4.375000000    -7.079000000    -1.440000000
H     4.697000000    -5.612000000    -1.254000000
O    -6.020000000    -0.787000000     2.043000000
H    -6.572000000    -0.329000000     1.409000000
H    -5.125000000    -0.589000000     1.768000000
O    -4.328000000    -0.956000000     5.981000000
H    -3.694000000    -0.508000000     5.420000000
H    -5.137000000    -0.963000000     5.470000000
O    -2.098000000    -3.983000000    -1.166000000
H    -2.437000000    -4.763000000    -0.726000000
H    -2.864000000    -3.421000000    -1.281000000
O     1.310000000     3.749000000     1.700000000
H     0.900000000     3.821000000     2.562000000
H     2.008000000     3.105000000     1.821000000
O     5.865000000    -0.879000000    -2.161000000
H     6.764000000    -0.724000000    -2.450000000
H     5.361000000    -0.949000000    -2.972000000
O    -6.698000000    -0.831000000     4.756000000
H    -7.361000000    -1.522000000     4.753000000
H    -6.762000000    -0.434000000     3.888000000
O     4.006000000    -1.436000000    -4.037000000
H     4.545000000    -2.211000000    -3.877000000
H     3.131000000    -1.784000000    -4.205000000
O    -7.789000000     2.235000000    -0.748000000
H    -7.028000000     1.668000000    -0.621000000
H    -8.037000000     2.100000000    -1.663000000
O     1.537000000     2.054000000     4.917000000
H     0.842000000     2.548000000     5.352000000
H     1.092000000     1.589000000     4.208000000
O     1.519000000    -2.504000000    -4.594000000
H     0.820000000    -2.334000000    -5.226000000
H     1.067000000    -2.857000000    -3.827000000
O    -2.022000000     4.222000000     2.351000000
H    -2.465000000     3.496000000     1.911000000
H    -1.966000000     3.948000000     3.267000000
O    -5.042000000     5.404000000     1.263000000
H    -4.939000000     4.509000000     1.586000000
H    -4.149000000     5.697000000     1.078000000
O    -1.120000000     1.064000000    -5.345000000
H    -0.468000000     1.749000000    -5.498000000
H    -0.899000000     0.713000000    -4.482000000
O    -0.668000000    -2.129000000     4.931000000
H    -0.956000000    -1.616000000     5.686000000
H     0.091000000    -2.617000000     5.249000000
O     5.161000000    -3.741000000    -3.592000000
H     5.700000000    -4.050000000    -4.320000000
H     4.983000000    -4.528000000    -3.076000000
O    -0.050000000    -3.401000000    -2.753000000
H    -0.887000000    -3.549000000    -2.315000000
H     0.370000000    -4.261000000    -2.765000000
O     2.396000000     3.447000000    -3.009000000
H     2.886000000     4.037000000    -3.582000000
H     2.680000000     2.571000000    -3.268000000
O    -3.310000000    -4.528000000     1.337000000
H    -3.976000000    -5.012000000     1.825000000
H    -3.139000000    -3.751000000     1.870000000
O    -7.557000000     3.988000000     3.108000000
H    -8.117000000     3.569000000     2.454000000
H    -6.737000000     3.496000000     3.071000000
O     3.305000000     1.260000000    -4.169000000
H     2.840000000     1.155000000    -4.999000000
H     3.610000000     0.379000000    -3.952000000
O    -5.391000000     0.598000000    -0.706000000
H    -4.788000000     0.322000000    -0.016000000
H    -4.879000000     0.534000000    -1.512000000
O    -2.828000000    -2.393000000     3.111000000
H    -3.350000000    -1.624000000     3.337000000
H    -2.094000000    -2.374000000     3.726000000
O    -0.251000000    -5.505000000     2.744000000
H    -0.707000000    -5.994000000     3.429000000
H    -0.942000000    -5.008000000     2.304000000
O    -1.406000000     6.607000000    -1.759000000
H    -0.865000000     5.837000000    -1.932000000
H    -1.618000000     6.547000000    -0.828000000
O     5.344000000     0.987000000     2.644000000
H     5.202000000     1.117000000     3.582000000
H     4.610000000     1.438000000     2.226000000
O     5.732000000    -0.933000000     0.754000000
H     5.711000000    -0.074000000     1.176000000
H     5.715000000    -0.739000000    -0.184000000
O     4.650000000     2.292000000    -1.290000000
H     5.253000000     2.989000000    -1.545000000
H     3.868000000     2.445000000    -1.820000000
O     3.130000000     5.836000000     0.873000000
H     3.365000000     6.121000000    -0.010000000
H     2.238000000     5.500000000     0.787000000
O    -3.394000000     0.624000000     3.808000000
H    -3.401000000     0.382000000     2.881000000
H    -2.685000000     1.263000000     3.883000000
O     5.778000000    -1.944000000     3.383000000
H     5.791000000    -2.686000000     2.778000000
H     5.954000000    -1.182000000     2.832000000
O    -0.701000000    -0.609000000    -2.994000000
H    -0.670000000    -1.562000000    -2.907000000
H    -0.153000000    -0.285000000    -2.281000000
O     5.066000000    -3.947000000    -0.363000000
H     4.608000000    -3.121000000    -0.515000000
H     5.404000000    -3.873000000     0.530000000
O    -2.882000000     2.927000000    -1.709000000
H    -2.128000000     3.511000000    -1.624000000
H    -3.207000000     2.822000000    -0.815000000
O    -5.466000000    -3.552000000     0.032000000
H    -5.085000000    -2.989000000    -0.642000000
H    -4.711000000    -3.955000000     0.462000000
O    -4.190000000    -2.419000000    -2.212000000
H    -4.009000000    -1.479000000    -2.189000000
H    -4.162000000    -2.645000000    -3.142000000
O     0.781000000     0.052000000     3.056000000
H     0.641000000    -0.193000000     2.142000000
H     1.348000000    -0.636000000     3.405000000
O    -2.241000000     6.511000000     0.896000000
H    -1.951000000     5.649000000     1.193000000
H    -2.129000000     7.078000000     1.659000000
O    -3.218000000     0.336000000    -2.439000000
H    -2.394000000     0.177000000    -2.900000000
H    -3.092000000     1.180000000    -2.007000000
O     5.855000000     2.486000000    -3.963000000
H     4.970000000     2.131000000    -4.047000000
H     6.185000000     2.520000000    -4.861000000
O    -6.865000000    -3.131000000     2.573000000
H    -6.465000000    -2.316000000     2.268000000
H    -6.830000000    -3.714000000     1.814000000
O     3.710000000     2.411000000     1.127000000
H     4.105000000     3.281000000     1.080000000
H     4.088000000     1.936000000     0.386000000
O     1.481000000    -5.449000000    -2.280000000
H     2.417000000    -5.538000000    -2.100000000
H     1.068000000    -6.126000000    -1.743000000
O    -1.936000000     3.624000000     5.186000000
H    -2.491000000     4.043000000     5.844000000
H    -1.200000000     3.269000000     5.683000000
O     0.355000000     5.331000000     3.879000000
H    -0.146000000     5.554000000     3.095000000
H    -0.037000000     5.861000000     4.573000000
O     0.623000000     4.823000000    -1.005000000
H     0.875000000     4.501000000    -0.139000000
H     1.288000000     4.468000000    -1.595000000
O     2.588000000    -4.574000000     4.038000000
H     2.220000000    -4.513000000     4.919000000
H     2.060000000    -3.970000000     3.516000000
O    -5.103000000     3.003000000     2.560000000
H    -5.213000000     2.188000000     3.050000000
H    -4.431000000     2.802000000     1.908000000
