144
-2805.25098
O     0.982000000     2.391000000     6.580000000
H     0.526000000     2.684000000     5.791000000
H     1.254000000     3.199000000     7.014000000
O    -2.103000000    -2.619000000    -2.292000000
H    -1.552000000    -3.147000000    -1.714000000
H    -2.427000000    -1.912000000    -1.734000000
O     2.928000000    -3.881000000    -2.847000000
H     3.111000000    -2.943000000    -2.897000000
H     3.073000000    -4.201000000    -3.737000000
O    -0.709000000    -2.783000000    -4.633000000
H    -1.028000000    -3.055000000    -3.773000000
H    -1.501000000    -2.556000000    -5.121000000
O    -0.542000000     3.250000000     4.658000000
H     0.034000000     3.614000000     3.986000000
H    -1.192000000     2.746000000     4.169000000
O     5.320000000     1.930000000    -4.437000000
H     5.674000000     1.968000000    -5.326000000
H     4.467000000     2.360000000    -4.501000000
O    -0.818000000     0.052000000    -5.303000000
H    -1.501000000     0.368000000    -4.711000000
H    -0.558000000    -0.794000000    -4.939000000
O    -3.025000000    -0.471000000    -0.624000000
H    -2.314000000    -0.374000000     0.010000000
H    -3.581000000     0.294000000    -0.479000000
O    -4.295000000    -2.869000000     4.884000000
H    -4.754000000    -3.126000000     5.684000000
H    -4.960000000    -2.930000000     4.198000000
O    -5.193000000    -0.221000000     1.393000000
H    -4.695000000    -0.094000000     2.200000000
H    -5.756000000     0.551000000     1.335000000
O    -4.198000000     0.085000000     3.817000000
H    -4.036000000    -0.413000000     4.618000000
H    -3.358000000     0.499000000     3.618000000
O    -3.654000000     3.537000000     1.531000000
H    -3.220000000     2.966000000     2.165000000
H    -2.961000000     4.119000000     1.219000000
O     0.465000000    -4.922000000    -2.670000000
H     1.375000000    -4.666000000    -2.523000000
H     0.484000000    -5.411000000    -3.493000000
O     2.775000000     3.126000000    -4.483000000
H     2.564000000     3.997000000    -4.821000000
H     2.396000000     2.523000000    -5.123000000
O    -5.697000000     5.087000000    -0.964000000
H    -6.314000000     4.736000000    -1.607000000
H    -5.194000000     4.326000000    -0.674000000
O     2.623000000    -1.071000000    -6.848000000
H     2.250000000    -0.273000000    -6.474000000
H     2.737000000    -0.869000000    -7.777000000
O     3.668000000     4.479000000    -2.052000000
H     4.464000000     4.631000000    -2.562000000
H     3.125000000     3.927000000    -2.614000000
O     5.310000000    -0.398000000    -3.140000000
H     5.096000000     0.366000000    -3.677000000
H     4.939000000    -1.139000000    -3.619000000
O    -5.182000000     5.446000000     2.942000000
H    -4.732000000     4.740000000     2.478000000
H    -4.623000000     6.212000000     2.814000000
O     3.075000000     4.345000000     0.522000000
H     3.237000000     4.424000000    -0.418000000
H     2.769000000     3.445000000     0.637000000
O     2.871000000     2.123000000     3.293000000
H     2.352000000     2.908000000     3.118000000
H     2.843000000     2.026000000     4.245000000
O    -4.497000000     1.916000000    -0.711000000
H    -4.099000000     2.601000000    -0.175000000
H    -5.381000000     1.817000000    -0.355000000
O     3.433000000    -0.276000000     1.680000000
H     3.282000000     0.494000000     2.227000000
H     2.558000000    -0.541000000     1.393000000
O    -2.331000000     3.875000000    -5.527000000
H    -1.583000000     3.524000000    -5.042000000
H    -1.939000000     4.352000000    -6.258000000
O     2.140000000    -3.165000000     2.398000000
H     1.501000000    -3.682000000     1.907000000
H     2.946000000    -3.680000000     2.358000000
O     4.198000000     1.449000000    -0.382000000
H     4.097000000     1.050000000    -1.246000000
H     3.767000000     0.838000000     0.216000000
O     4.170000000    -2.246000000    -4.995000000
H     3.606000000    -1.940000000    -5.705000000
H     4.999000000    -2.461000000    -5.424000000
O    -2.237000000     5.158000000     5.705000000
H    -1.948000000     6.001000000     5.355000000
H    -1.490000000     4.575000000     5.573000000
O    -1.721000000    -2.685000000     3.796000000
H    -2.527000000    -2.723000000     4.311000000
H    -1.497000000    -1.755000000     3.768000000
O    -2.929000000    -4.724000000     0.021000000
H    -3.280000000    -5.551000000    -0.309000000
H    -1.979000000    -4.827000000    -0.037000000
O     5.512000000    -2.333000000    -1.153000000
H     5.452000000    -1.475000000    -1.574000000
H     6.187000000    -2.796000000    -1.649000000
O    -0.232000000    -5.034000000    -0.057000000
H     0.075000000    -5.923000000     0.123000000
H     0.342000000    -4.720000000    -0.756000000
O     0.600000000    -3.494000000    -6.839000000
H     0.171000000    -3.308000000    -6.003000000
H     1.116000000    -2.710000000    -7.024000000
O    -4.323000000    -0.513000000     6.874000000
H    -3.467000000    -0.615000000     7.290000000
H    -4.549000000    -1.392000000     6.571000000
O     5.176000000    -2.534000000     1.540000000
H     5.338000000    -2.428000000     0.603000000
H     4.559000000    -1.835000000     1.757000000
O    -2.817000000    -5.444000000     2.930000000
H    -2.475000000    -5.508000000     2.038000000
H    -2.532000000    -4.583000000     3.235000000
O    -2.389000000     1.075000000    -3.426000000
H    -3.324000000     1.278000000    -3.386000000
H    -2.187000000     0.709000000    -2.564000000
O     3.093000000    -5.997000000    -0.912000000
H     3.041000000    -5.187000000    -1.420000000
H     3.618000000    -6.586000000    -1.455000000
O    -0.723000000    -0.405000000     6.048000000
H    -1.150000000    -0.119000000     5.240000000
H     0.035000000     0.172000000     6.135000000
O    -0.095000000     4.585000000    -2.116000000
H    -0.254000000     4.028000000    -2.878000000
H     0.268000000     5.392000000    -2.481000000
O     0.055000000     2.806000000    -4.489000000
H     0.987000000     2.963000000    -4.338000000
H    -0.023000000     1.854000000    -4.539000000
O     2.010000000     1.494000000    -6.515000000
H     1.204000000     1.573000000    -7.026000000
H     2.705000000     1.444000000    -7.171000000
O    -0.172000000    -4.856000000     5.068000000
H    -0.553000000    -4.058000000     4.701000000
H    -0.500000000    -4.886000000     5.967000000
O     1.734000000    -1.950000000     4.916000000
H     1.763000000    -2.256000000     4.010000000
H     0.811000000    -1.753000000     5.074000000
O     2.262000000    -6.084000000     1.623000000
H     2.921000000    -5.520000000     2.029000000
H     2.468000000    -6.057000000     0.688000000
O    -1.982000000     5.377000000     0.227000000
H    -2.375000000     5.909000000    -0.464000000
H    -1.186000000     5.021000000    -0.169000000
O    -6.333000000     1.812000000     4.228000000
H    -7.004000000     1.132000000     4.284000000
H    -5.513000000     1.331000000     4.115000000
O    -1.467000000    -1.336000000     8.338000000
H    -0.837000000    -0.905000000     8.915000000
H    -1.172000000    -1.117000000     7.454000000
