144
-2814.76902
O    -0.392000000     2.196000000     7.362000000
H    -0.945000000     2.479000000     6.634000000
H     0.112000000     2.975000000     7.598000000
O    -2.230000000    -2.831000000    -2.432000000
H    -2.206000000    -3.230000000    -1.563000000
H    -2.761000000    -2.042000000    -2.319000000
O     1.534000000     3.878000000     1.857000000
H     1.901000000     3.210000000     1.278000000
H     2.069000000     3.827000000     2.650000000
O     2.498000000    -5.628000000    -3.114000000
H     3.306000000    -6.037000000    -2.803000000
H     1.999000000    -6.347000000    -3.501000000
O    -1.321000000    -5.089000000    -3.952000000
H    -1.450000000    -4.355000000    -3.351000000
H    -2.137000000    -5.135000000    -4.451000000
O    -1.248000000     4.214000000     2.701000000
H    -0.358000000     4.336000000     2.371000000
H    -1.369000000     3.264000000     2.720000000
O     4.168000000     3.895000000    -2.687000000
H     4.697000000     4.049000000    -3.469000000
H     3.507000000     3.260000000    -2.966000000
O    -1.968000000    -0.410000000    -5.712000000
H    -2.571000000    -0.332000000    -4.973000000
H    -2.529000000    -0.625000000    -6.458000000
O    -2.823000000    -0.324000000    -1.548000000
H    -3.158000000    -0.363000000    -0.652000000
H    -1.872000000    -0.367000000    -1.449000000
O    -3.879000000    -3.323000000     5.491000000
H    -3.748000000    -4.068000000     6.076000000
H    -4.825000000    -3.177000000     5.497000000
O    -4.083000000    -0.742000000     0.870000000
H    -3.674000000    -0.554000000     1.715000000
H    -4.982000000    -0.986000000     1.087000000
O    -3.547000000     0.723000000     5.229000000
H    -2.802000000     0.572000000     5.811000000
H    -3.245000000     0.422000000     4.371000000
O    -3.983000000     3.266000000     2.022000000
H    -3.251000000     2.677000000     2.205000000
H    -3.662000000     3.840000000     1.327000000
O     0.602000000    -5.842000000    -0.610000000
H     1.216000000    -5.591000000    -1.301000000
H     0.047000000    -6.508000000    -1.014000000
O     2.825000000     2.399000000    -4.998000000
H     2.541000000     3.176000000    -5.479000000
H     2.783000000     1.691000000    -5.641000000
O     5.446000000     0.859000000    -4.191000000
H     4.917000000     1.437000000    -4.741000000
H     4.897000000     0.085000000    -4.060000000
O    -4.940000000    -3.850000000     0.244000000
H    -5.525000000    -4.601000000     0.345000000
H    -4.061000000    -4.229000000     0.249000000
O     6.023000000     1.495000000    -1.660000000
H     6.521000000     2.307000000    -1.749000000
H     5.903000000     1.188000000    -2.559000000
O    -5.986000000     5.170000000     2.653000000
H    -5.515000000     4.349000000     2.509000000
H    -5.312000000     5.846000000     2.593000000
O     4.997000000     4.061000000    -0.070000000
H     4.717000000     3.991000000    -0.983000000
H     4.755000000     3.220000000     0.319000000
O     0.910000000     1.650000000     4.534000000
H     0.609000000     2.554000000     4.442000000
H     1.815000000     1.728000000     4.836000000
O     2.156000000    -0.263000000     2.317000000
H     2.708000000     0.398000000     2.735000000
H     1.323000000     0.182000000     2.164000000
O     2.800000000    -2.806000000     3.277000000
H     2.479000000    -1.931000000     3.061000000
H     2.268000000    -3.395000000     2.743000000
O     0.554000000     4.875000000    -3.154000000
H     1.348000000     4.908000000    -3.688000000
H     0.019000000     5.601000000    -3.476000000
O     4.332000000     1.314000000     0.516000000
H     4.784000000     1.170000000    -0.316000000
H     4.493000000     0.515000000     1.018000000
O    -1.929000000     3.234000000     5.263000000
H    -1.513000000     3.992000000     4.850000000
H    -2.117000000     2.639000000     4.537000000
O    -2.196000000    -3.355000000     3.498000000
H    -2.548000000    -3.534000000     4.370000000
H    -2.500000000    -2.470000000     3.294000000
O    -1.724000000    -4.021000000     0.006000000
H    -1.811000000    -4.069000000     0.958000000
H    -1.042000000    -4.660000000    -0.204000000
O     4.807000000    -3.801000000     0.275000000
H     5.103000000    -4.245000000    -0.519000000
H     4.049000000    -4.309000000     0.565000000
O     1.739000000    -4.961000000     1.797000000
H     2.571000000    -5.433000000     1.829000000
H     1.297000000    -5.306000000     1.022000000
O    -5.473000000     3.369000000    -1.134000000
H    -4.686000000     3.844000000    -0.868000000
H    -5.606000000     2.719000000    -0.444000000
O     1.125000000    -3.729000000    -4.918000000
H     0.217000000    -4.005000000    -4.798000000
H     1.521000000    -3.823000000    -4.052000000
O    -2.456000000    -1.242000000     7.058000000
H    -2.021000000    -2.082000000     7.204000000
H    -3.125000000    -1.430000000     6.399000000
O     4.879000000    -1.439000000     1.237000000
H     5.228000000    -2.182000000     0.747000000
H     4.092000000    -1.780000000     1.663000000
O    -0.537000000    -5.863000000     3.124000000
H     0.340000000    -5.660000000     2.800000000
H    -0.908000000    -5.013000000     3.361000000
O     3.215000000    -2.863000000    -6.184000000
H     2.456000000    -3.296000000    -5.791000000
H     3.569000000    -3.509000000    -6.795000000
O     0.143000000    -0.927000000     5.023000000
H    -0.724000000    -0.844000000     4.626000000
H     0.537000000    -0.061000000     4.919000000
O     0.742000000     6.658000000     0.870000000
H     1.185000000     5.868000000     1.179000000
H    -0.095000000     6.346000000     0.527000000
O    -1.475000000     3.355000000    -2.218000000
H    -1.606000000     2.782000000    -2.973000000
H    -0.735000000     3.910000000    -2.464000000
O    -0.649000000     2.114000000    -5.096000000
H     0.262000000     1.993000000    -4.826000000
H    -0.946000000     1.236000000    -5.337000000
O     2.058000000    -0.274000000    -6.123000000
H     1.348000000    -0.270000000    -6.764000000
H     2.482000000    -1.124000000    -6.239000000
O    -3.454000000    -5.845000000     2.258000000
H    -2.733000000    -6.278000000     2.715000000
H    -3.447000000    -4.949000000     2.593000000
O     1.203000000    -3.318000000     5.585000000
H     1.685000000    -3.404000000     4.763000000
H     0.669000000    -2.532000000     5.469000000
O    -0.161000000    -0.720000000    -7.736000000
H    -0.735000000    -0.120000000    -8.212000000
H    -0.543000000    -0.774000000    -6.860000000
O    -3.183000000     4.359000000    -0.564000000
H    -2.764000000     5.217000000    -0.629000000
H    -2.497000000     3.738000000    -0.811000000
O    -5.227000000     0.246000000     7.522000000
H    -4.671000000     0.216000000     6.744000000
H    -4.706000000     0.721000000     8.170000000
O    -5.331000000     2.644000000     4.665000000
H    -4.858000000     2.027000000     5.223000000
H    -4.691000000     2.908000000     4.004000000
O    -3.239000000     6.237000000     2.318000000
H    -2.553000000     5.602000000     2.524000000
H    -3.015000000     6.557000000     1.444000000
