144
-2836.29136
O    -0.525000000     5.620000000     1.752000000
H     0.388000000     5.683000000     1.472000000
H    -0.565000000     6.134000000     2.558000000
O     2.604000000    -4.166000000    -1.070000000
H     3.237000000    -3.755000000    -0.481000000
H     2.267000000    -4.914000000    -0.576000000
O     0.992000000    -1.290000000     6.187000000
H     0.338000000    -1.506000000     5.522000000
H     0.688000000    -0.463000000     6.562000000
O    -2.523000000    -3.910000000     0.418000000
H    -2.430000000    -3.562000000    -0.468000000
H    -2.162000000    -4.795000000     0.367000000
O    -2.966000000     4.118000000     1.921000000
H    -2.044000000     4.372000000     1.885000000
H    -2.949000000     3.165000000     2.011000000
O    -5.677000000     2.762000000     4.026000000
H    -5.885000000     2.184000000     4.760000000
H    -6.334000000     3.456000000     4.073000000
O     4.290000000    -1.121000000    -4.689000000
H     4.443000000    -1.860000000    -4.099000000
H     3.597000000    -1.424000000    -5.276000000
O    -1.590000000     0.734000000    -5.278000000
H    -2.237000000     0.533000000    -5.954000000
H    -1.902000000     1.548000000    -4.882000000
O    -6.489000000    -3.816000000     2.294000000
H    -5.827000000    -3.241000000     1.908000000
H    -7.250000000    -3.250000000     2.424000000
O    -2.726000000    -1.202000000     6.478000000
H    -3.572000000    -0.823000000     6.240000000
H    -2.351000000    -1.492000000     5.647000000
O    -4.809000000     0.984000000     0.191000000
H    -4.144000000     1.149000000     0.859000000
H    -4.715000000     1.711000000    -0.425000000
O     1.955000000     5.805000000     0.399000000
H     2.681000000     6.396000000     0.600000000
H     1.829000000     5.895000000    -0.546000000
O     1.531000000     2.691000000    -4.354000000
H     1.099000000     1.900000000    -4.677000000
H     1.526000000     3.289000000    -5.102000000
O     2.677000000     4.976000000    -3.024000000
H     2.455000000     4.205000000    -3.547000000
H     3.343000000     4.666000000    -2.411000000
O    -4.773000000    -2.139000000     1.050000000
H    -3.872000000    -2.461000000     1.023000000
H    -4.689000000    -1.187000000     1.001000000
O     6.611000000    -2.854000000    -2.994000000
H     6.322000000    -3.370000000    -2.242000000
H     6.138000000    -3.228000000    -3.737000000
O     4.405000000     4.187000000    -1.070000000
H     5.242000000     4.637000000    -1.185000000
H     4.440000000     3.840000000    -0.179000000
O     3.146000000    -6.452000000    -2.682000000
H     3.017000000    -5.606000000    -2.252000000
H     2.260000000    -6.792000000    -2.811000000
O    -7.400000000     1.427000000    -0.109000000
H    -6.502000000     1.127000000     0.032000000
H    -7.856000000     1.205000000     0.703000000
O     4.264000000     1.711000000     0.633000000
H     4.827000000     1.409000000     1.345000000
H     4.351000000     1.039000000    -0.043000000
O    -0.196000000     1.135000000     6.294000000
H    -0.614000000     0.964000000     5.449000000
H    -0.900000000     1.479000000     6.844000000
O    -2.258000000     5.523000000    -0.606000000
H    -1.521000000     5.668000000    -0.013000000
H    -1.917000000     5.749000000    -1.472000000
O     0.069000000     5.983000000    -2.454000000
H     0.919000000     5.561000000    -2.575000000
H    -0.331000000     5.969000000    -3.324000000
O     1.330000000     2.251000000     2.158000000
H     1.559000000     3.171000000     2.027000000
H     0.890000000     1.996000000     1.347000000
O     4.397000000    -4.453000000    -4.219000000
H     3.443000000    -4.498000000    -4.285000000
H     4.706000000    -4.602000000    -5.113000000
O    -2.980000000     2.229000000     4.430000000
H    -3.872000000     2.494000000     4.205000000
H    -2.758000000     1.562000000     3.780000000
O     6.940000000    -0.300000000    -3.934000000
H     6.069000000    -0.333000000    -4.328000000
H     7.326000000    -1.153000000    -4.133000000
O    -2.315000000    -4.796000000     3.457000000
H    -2.512000000    -4.533000000     2.558000000
H    -2.882000000    -4.247000000     3.997000000
O     6.007000000     1.231000000    -1.973000000
H     6.542000000     0.811000000    -2.647000000
H     5.298000000     1.653000000    -2.459000000
O    -1.719000000     4.457000000     5.037000000
H    -2.246000000     3.712000000     4.749000000
H    -1.755000000     4.421000000     5.993000000
O    -3.923000000     6.477000000     3.401000000
H    -3.692000000     5.582000000     3.150000000
H    -4.336000000     6.846000000     2.620000000
O    -4.337000000    -3.658000000     4.658000000
H    -4.694000000    -2.781000000     4.797000000
H    -4.770000000    -3.970000000     3.863000000
O     4.707000000    -2.840000000     0.663000000
H     5.054000000    -1.948000000     0.643000000
H     4.287000000    -2.914000000     1.521000000
O    -4.162000000     3.183000000    -1.193000000
H    -4.781000000     3.902000000    -1.066000000
H    -3.300000000     3.592000000    -1.104000000
O     1.764000000    -4.030000000    -3.860000000
H     1.911000000    -3.859000000    -2.930000000
H     0.998000000    -4.604000000    -3.879000000
O     2.431000000    -0.363000000     3.040000000
H     2.629000000    -0.157000000     3.954000000
H     2.076000000     0.451000000     2.683000000
O     2.141000000    -2.373000000    -6.105000000
H     1.245000000    -2.102000000    -6.305000000
H     2.042000000    -3.049000000    -5.434000000
O    -3.588000000    -0.147000000    -2.289000000
H    -2.923000000    -0.824000000    -2.421000000
H    -3.542000000     0.054000000    -1.354000000
O    -1.136000000    -2.013000000     4.323000000
H    -0.649000000    -2.672000000     3.828000000
H    -1.622000000    -1.525000000     3.659000000
O     4.266000000     1.722000000    -4.511000000
H     3.442000000     1.960000000    -4.085000000
H     4.246000000     0.766000000    -4.555000000
O     3.031000000    -2.888000000     2.803000000
H     2.594000000    -2.038000000     2.853000000
H     2.315000000    -3.522000000     2.756000000
O    -1.440000000    -1.998000000    -2.562000000
H    -0.569000000    -1.814000000    -2.208000000
H    -1.315000000    -2.769000000    -3.115000000
O    -1.483000000     4.749000000    -4.383000000
H    -0.901000000     4.501000000    -5.101000000
H    -1.873000000     3.924000000    -4.093000000
O    -0.420000000    -1.449000000    -6.227000000
H    -1.069000000    -2.079000000    -5.914000000
H    -0.637000000    -0.635000000    -5.772000000
O     0.515000000    -4.260000000     3.537000000
H     0.688000000    -4.863000000     4.260000000
H    -0.267000000    -4.612000000     3.113000000
O    -2.772000000     2.412000000    -3.600000000
H    -3.644000000     2.785000000    -3.468000000
H    -2.770000000     1.615000000    -3.068000000
O    -4.738000000    -0.979000000     4.416000000
H    -5.455000000    -0.501000000     4.000000000
H    -3.969000000    -0.765000000     3.888000000
O    -5.832000000     4.230000000     1.357000000
H    -4.884000000     4.098000000     1.359000000
H    -6.154000000     3.666000000     2.060000000
