144
-2818.55074
O     4.045000000    -1.408000000    -0.903000000
H     3.761000000    -2.078000000    -1.525000000
H     3.586000000    -0.615000000    -1.179000000
O     0.851000000     2.057000000     5.778000000
H     1.582000000     2.671000000     5.845000000
H     0.757000000     1.897000000     4.839000000
O    -2.212000000    -6.411000000    -3.562000000
H    -1.279000000    -6.319000000    -3.366000000
H    -2.484000000    -7.187000000    -3.072000000
O     2.226000000    -1.913000000     5.694000000
H     1.299000000    -1.755000000     5.512000000
H     2.588000000    -2.204000000     4.857000000
O     4.646000000    -3.381000000     3.737000000
H     4.502000000    -2.682000000     3.099000000
H     5.093000000    -4.068000000     3.243000000
O     0.722000000    -4.088000000     3.299000000
H     1.450000000    -4.280000000     2.708000000
H     1.098000000    -4.166000000     4.176000000
O     2.387000000     2.169000000    -4.010000000
H     2.468000000     2.537000000    -4.890000000
H     2.672000000     2.874000000    -3.429000000
O    -3.064000000    -0.372000000     0.352000000
H    -3.235000000    -1.256000000     0.027000000
H    -2.144000000    -0.213000000     0.142000000
O     0.678000000    -6.008000000    -4.080000000
H     1.404000000    -6.392000000    -3.589000000
H     0.579000000    -6.575000000    -4.844000000
O    -3.872000000     4.265000000    -2.988000000
H    -3.597000000     3.484000000    -3.468000000
H    -4.571000000     3.958000000    -2.411000000
O    -2.493000000     4.026000000     6.125000000
H    -2.992000000     3.250000000     5.868000000
H    -1.746000000     3.679000000     6.613000000
O    -0.913000000     0.741000000    -5.682000000
H    -0.496000000     1.356000000    -6.286000000
H    -0.443000000    -0.082000000    -5.815000000
O     4.265000000     3.185000000     4.718000000
H     3.966000000     2.925000000     5.590000000
H     3.685000000     3.906000000     4.471000000
O    -3.613000000    -0.720000000    -3.202000000
H    -3.214000000    -1.561000000    -2.979000000
H    -4.384000000    -0.951000000    -3.719000000
O     4.624000000     4.070000000     0.091000000
H     5.355000000     3.666000000     0.558000000
H     3.899000000     4.050000000     0.716000000
O     2.949000000     0.975000000    -1.511000000
H     2.246000000     0.938000000    -0.863000000
H     2.565000000     1.442000000    -2.254000000
O    -2.800000000     1.765000000    -3.503000000
H    -3.131000000     0.908000000    -3.234000000
H    -1.992000000     1.573000000    -3.978000000
O    -3.685000000     2.001000000    -0.897000000
H    -3.122000000     1.910000000    -1.666000000
H    -3.333000000     1.372000000    -0.268000000
O     2.633000000     3.582000000     2.002000000
H     2.629000000     4.350000000     2.573000000
H     2.155000000     2.915000000     2.495000000
O     0.486000000     6.714000000     1.787000000
H     0.232000000     6.584000000     2.701000000
H     1.051000000     7.486000000     1.803000000
O    -0.448000000     4.867000000     4.141000000
H    -0.863000000     4.516000000     4.929000000
H    -0.471000000     4.143000000     3.516000000
O     0.049000000     0.889000000     8.027000000
H     0.307000000     1.366000000     7.238000000
H     0.835000000     0.406000000     8.282000000
O    -3.204000000    -0.982000000     5.461000000
H    -3.082000000    -0.185000000     4.944000000
H    -3.237000000    -1.685000000     4.812000000
O     3.395000000     1.889000000     6.966000000
H     2.953000000     1.255000000     7.532000000
H     4.246000000     1.492000000     6.781000000
O     5.635000000    -3.423000000    -3.201000000
H     6.002000000    -2.734000000    -3.755000000
H     4.708000000    -3.451000000    -3.436000000
O     2.654000000    -5.292000000     1.848000000
H     3.453000000    -4.785000000     1.989000000
H     2.955000000    -6.111000000     1.456000000
O     0.747000000     4.327000000    -0.062000000
H     0.747000000     5.115000000     0.481000000
H     1.521000000     3.841000000     0.223000000
O    -0.749000000    -3.985000000    -5.335000000
H    -1.647000000    -4.282000000    -5.184000000
H    -0.203000000    -4.668000000    -4.946000000
O     2.299000000    -0.551000000    -4.595000000
H     2.213000000     0.369000000    -4.344000000
H     3.213000000    -0.640000000    -4.867000000
O    -4.372000000     3.222000000     3.454000000
H    -5.240000000     3.537000000     3.203000000
H    -3.766000000     3.843000000     3.050000000
O    -3.245000000    -3.844000000    -3.988000000
H    -2.971000000    -4.690000000    -3.634000000
H    -4.200000000    -3.857000000    -3.925000000
O     3.993000000    -1.701000000     1.656000000
H     3.948000000    -1.695000000     0.700000000
H     3.141000000    -1.366000000     1.937000000
O    -2.483000000     4.879000000     1.687000000
H    -1.939000000     5.661000000     1.586000000
H    -1.864000000     4.186000000     1.916000000
O    -3.172000000    -2.286000000     2.975000000
H    -2.669000000    -3.040000000     2.666000000
H    -3.014000000    -1.608000000     2.319000000
O    -0.991000000     5.335000000    -2.427000000
H    -0.768000000     4.885000000    -1.612000000
H    -1.917000000     5.136000000    -2.565000000
O    -1.441000000    -4.401000000     1.977000000
H    -1.243000000    -4.944000000     1.214000000
H    -0.606000000    -4.323000000     2.439000000
O     0.372000000    -1.640000000    -6.133000000
H     1.238000000    -1.498000000    -5.752000000
H     0.064000000    -2.452000000    -5.732000000
O     3.357000000     0.863000000     3.664000000
H     2.459000000     0.924000000     3.336000000
H     3.514000000     1.705000000     4.090000000
O    -5.148000000     1.068000000     1.789000000
H    -4.776000000     1.949000000     1.772000000
H    -4.503000000     0.526000000     1.334000000
O    -3.280000000    -3.128000000    -0.153000000
H    -2.789000000    -3.926000000    -0.348000000
H    -4.071000000    -3.436000000     0.290000000
O     2.925000000    -3.056000000    -3.631000000
H     2.715000000    -2.124000000    -3.702000000
H     2.086000000    -3.477000000    -3.443000000
O     2.168000000     4.786000000     4.678000000
H     2.341000000     5.468000000     5.327000000
H     1.216000000     4.788000000     4.577000000
O     3.534000000    -4.191000000    -0.807000000
H     4.093000000    -4.067000000    -0.040000000
H     4.119000000    -4.555000000    -1.472000000
O    -5.567000000     3.732000000     0.206000000
H    -6.394000000     3.270000000     0.068000000
H    -4.903000000     3.154000000    -0.169000000
O    -2.492000000     1.366000000     4.124000000
H    -1.890000000     1.882000000     3.588000000
H    -3.335000000     1.809000000     4.031000000
O    -0.321000000    -0.946000000     5.449000000
H    -0.275000000    -0.020000000     5.208000000
H    -1.254000000    -1.113000000     5.581000000
O     0.547000000    -6.258000000     0.283000000
H     0.186000000    -6.473000000     1.143000000
H     1.429000000    -5.935000000     0.467000000
O    -2.281000000     7.240000000     4.518000000
H    -1.746000000     8.029000000     4.435000000
H    -1.647000000     6.526000000     4.587000000
