144
-2816.26577
O     0.929000000    -3.795000000     1.787000000
H     0.253000000    -3.120000000     1.838000000
H     1.679000000    -3.420000000     2.249000000
O    -3.806000000     6.772000000     1.369000000
H    -4.722000000     6.710000000     1.100000000
H    -3.842000000     7.058000000     2.282000000
O     2.083000000     2.130000000    -0.483000000
H     1.530000000     1.413000000    -0.175000000
H     2.499000000     2.470000000     0.310000000
O    -4.318000000     0.825000000    -2.309000000
H    -3.653000000     1.100000000    -2.941000000
H    -3.949000000     1.057000000    -1.457000000
O     1.972000000    -0.700000000     4.373000000
H     1.206000000    -1.116000000     4.770000000
H     1.788000000     0.238000000     4.422000000
O    -4.810000000    -1.804000000    -3.997000000
H    -3.908000000    -1.740000000    -4.311000000
H    -4.898000000    -1.082000000    -3.374000000
O    -5.374000000     3.686000000     0.528000000
H    -4.582000000     3.252000000     0.211000000
H    -5.391000000     3.497000000     1.466000000
O    -5.837000000     6.383000000    -0.559000000
H    -5.936000000     5.495000000    -0.214000000
H    -5.560000000     6.258000000    -1.466000000
O    -2.406000000     3.253000000     4.078000000
H    -2.359000000     2.847000000     3.213000000
H    -1.521000000     3.581000000     4.238000000
O    -2.403000000    -2.247000000    -5.567000000
H    -2.285000000    -2.535000000    -6.472000000
H    -1.598000000    -2.514000000    -5.123000000
O     0.123000000     2.008000000    -3.560000000
H    -0.628000000     1.484000000    -3.837000000
H    -0.229000000     2.600000000    -2.896000000
O     5.515000000     1.935000000    -1.931000000
H     5.822000000     1.449000000    -2.696000000
H     4.713000000     2.366000000    -2.228000000
O     2.164000000     4.475000000    -3.362000000
H     2.982000000     4.573000000    -3.848000000
H     2.245000000     3.627000000    -2.925000000
O    -2.569000000    -2.246000000     2.024000000
H    -2.406000000    -2.486000000     1.112000000
H    -3.059000000    -2.986000000     2.382000000
O     5.047000000     2.016000000     4.532000000
H     4.550000000     2.463000000     5.217000000
H     4.494000000     1.277000000     4.279000000
O     5.421000000    -0.600000000     0.036000000
H     5.731000000    -1.354000000    -0.466000000
H     5.390000000     0.115000000    -0.600000000
O     2.695000000     0.995000000    -2.968000000
H     1.780000000     1.177000000    -3.182000000
H     2.780000000     1.250000000    -2.049000000
O     4.424000000    -0.101000000     2.677000000
H     4.136000000    -0.976000000     2.937000000
H     4.643000000    -0.186000000     1.749000000
O     3.381000000    -3.983000000    -2.730000000
H     3.405000000    -4.533000000    -1.947000000
H     4.258000000    -3.603000000    -2.784000000
O    -4.913000000     4.646000000     4.103000000
H    -4.201000000     4.007000000     4.081000000
H    -5.636000000     4.215000000     3.646000000
O     0.087000000    -2.652000000    -4.805000000
H     0.634000000    -3.336000000    -5.193000000
H     0.682000000    -1.913000000    -4.678000000
O    -2.051000000     0.491000000    -4.747000000
H    -1.670000000    -0.337000000    -5.039000000
H    -2.836000000     0.595000000    -5.284000000
O     1.813000000     2.049000000     4.428000000
H     0.972000000     2.001000000     4.881000000
H     2.358000000     2.598000000     4.992000000
O    -7.945000000     4.481000000    -0.400000000
H    -8.420000000     3.868000000    -0.961000000
H    -7.268000000     3.949000000     0.018000000
O    -2.518000000     2.630000000     6.753000000
H    -1.670000000     2.219000000     6.922000000
H    -2.458000000     2.938000000     5.848000000
O     0.131000000     1.638000000     6.891000000
H     0.702000000     1.669000000     7.658000000
H     0.162000000     0.725000000     6.606000000
O    -2.344000000    -0.775000000     4.438000000
H    -3.233000000    -0.894000000     4.772000000
H    -2.381000000    -1.100000000     3.538000000
O    -1.718000000     4.870000000     0.893000000
H    -2.182000000     4.174000000     1.358000000
H    -2.370000000     5.563000000     0.788000000
O     0.431000000    -6.196000000     0.724000000
H     0.304000000    -5.249000000     0.780000000
H    -0.445000000    -6.546000000     0.563000000
O     3.157000000    -2.833000000     3.072000000
H     2.646000000    -2.130000000     3.474000000
H     3.812000000    -3.060000000     3.731000000
O    -4.891000000     5.091000000    -2.724000000
H    -4.301000000     5.657000000    -3.221000000
H    -4.310000000     4.492000000    -2.256000000
O     3.357000000    -6.314000000    -4.772000000
H     3.118000000    -5.527000000    -4.281000000
H     4.271000000    -6.175000000    -5.018000000
O    -4.504000000    -2.159000000    -0.902000000
H    -4.464000000    -1.222000000    -0.711000000
H    -3.731000000    -2.524000000    -0.470000000
O    -1.669000000     3.423000000    -1.769000000
H    -1.431000000     4.056000000    -1.092000000
H    -2.252000000     2.807000000    -1.326000000
O    -1.289000000    -4.533000000    -3.054000000
H    -0.539000000    -3.940000000    -3.111000000
H    -1.059000000    -5.266000000    -3.624000000
O     2.478000000    -1.690000000    -4.113000000
H     2.681000000    -2.299000000    -3.403000000
H     2.540000000    -0.824000000    -3.710000000
O    -0.207000000    -0.978000000     6.166000000
H    -0.005000000    -1.893000000     5.970000000
H    -0.997000000    -0.793000000     5.658000000
O    -2.271000000    -3.690000000    -0.148000000
H    -1.951000000    -3.727000000    -1.050000000
H    -2.376000000    -4.607000000     0.106000000
O     0.932000000     5.073000000     0.508000000
H     1.412000000     4.317000000     0.845000000
H     0.083000000     5.032000000     0.947000000
O     6.379000000    -2.895000000    -1.235000000
H     6.068000000    -3.783000000    -1.055000000
H     6.928000000    -2.987000000    -2.013000000
O     0.579000000    -3.297000000     4.949000000
H     1.220000000    -3.956000000     4.682000000
H    -0.261000000    -3.754000000     4.923000000
O    -4.595000000    -0.115000000     2.289000000
H    -4.757000000    -0.174000000     3.231000000
H    -3.642000000    -0.069000000     2.212000000
O     2.911000000     3.008000000     2.056000000
H     2.599000000     2.581000000     2.854000000
H     3.759000000     3.379000000     2.298000000
O     8.209000000     0.507000000    -0.840000000
H     8.010000000     0.387000000    -1.769000000
H     7.407000000     0.247000000    -0.388000000
O    -6.529000000     0.792000000     0.365000000
H    -5.846000000     0.534000000     0.983000000
H    -6.125000000     1.481000000    -0.164000000
O     5.302000000    -3.561000000     1.413000000
H     5.556000000    -2.854000000     0.819000000
H     4.841000000    -3.119000000     2.126000000
O     0.167000000     4.323000000     4.301000000
H     0.984000000     4.043000000     3.888000000
H     0.177000000     5.278000000     4.228000000
O    -1.843000000     4.137000000    -4.337000000
H    -1.624000000     5.032000000    -4.596000000
H    -1.591000000     4.087000000    -3.414000000
