144
-2844.57103
O     2.340000000    -3.415000000    -3.697000000
H     3.056000000    -3.728000000    -4.249000000
H     1.714000000    -3.031000000    -4.311000000
O     0.644000000     6.910000000    -3.440000000
H     1.022000000     7.528000000    -4.066000000
H     1.019000000     6.064000000    -3.683000000
O    -1.543000000     2.229000000    -4.313000000
H    -2.492000000     2.134000000    -4.232000000
H    -1.335000000     3.010000000    -3.800000000
O    -1.049000000     2.269000000     3.338000000
H    -1.545000000     2.786000000     3.973000000
H    -1.676000000     1.621000000     3.015000000
O    -3.268000000    -2.366000000     5.075000000
H    -2.503000000    -2.362000000     4.499000000
H    -2.910000000    -2.207000000     5.948000000
O    -5.976000000    -0.658000000     5.342000000
H    -6.380000000    -1.426000000     5.746000000
H    -5.042000000    -0.864000000     5.316000000
O     0.424000000    -3.767000000    -1.472000000
H     0.672000000    -3.697000000    -2.394000000
H     1.053000000    -3.210000000    -1.013000000
O    -6.012000000    -2.396000000    -2.036000000
H    -6.674000000    -3.076000000    -1.913000000
H    -5.266000000    -2.856000000    -2.422000000
O     0.641000000     4.390000000     3.035000000
H    -0.074000000     3.754000000     3.061000000
H     0.868000000     4.532000000     3.954000000
O     2.670000000     3.612000000     1.409000000
H     2.090000000     3.939000000     2.096000000
H     3.008000000     4.401000000     0.985000000
O    -1.571000000    -0.911000000     6.970000000
H    -1.693000000    -1.712000000     7.479000000
H    -2.304000000    -0.350000000     7.226000000
O     2.459000000    -2.635000000     0.232000000
H     3.133000000    -2.780000000     0.897000000
H     2.277000000    -1.696000000     0.278000000
O    -5.276000000    -4.189000000     4.504000000
H    -4.733000000    -3.403000000     4.455000000
H    -4.887000000    -4.788000000     3.867000000
O    -2.647000000    -1.490000000    -5.085000000
H    -3.020000000    -2.294000000    -5.447000000
H    -2.724000000    -0.850000000    -5.793000000
O     3.997000000     5.802000000     0.266000000
H     4.602000000     5.315000000    -0.294000000
H     3.524000000     6.377000000    -0.336000000
O     6.243000000     2.504000000     0.614000000
H     5.943000000     2.077000000     1.416000000
H     6.605000000     3.340000000     0.909000000
O     1.900000000     3.041000000    -6.492000000
H     1.711000000     2.341000000    -5.867000000
H     1.146000000     3.047000000    -7.080000000
O     3.978000000     1.576000000     2.506000000
H     3.219000000     1.495000000     3.084000000
H     3.717000000     2.230000000     1.858000000
O     6.011000000     0.011000000    -3.732000000
H     6.085000000    -0.929000000    -3.570000000
H     5.111000000     0.131000000    -4.036000000
O     0.217000000    -2.347000000    -5.615000000
H     0.277000000    -2.381000000    -6.570000000
H    -0.573000000    -1.836000000    -5.443000000
O    -5.458000000     1.063000000    -0.222000000
H    -6.106000000     0.705000000    -0.830000000
H    -5.259000000     0.337000000     0.369000000
O     0.287000000     1.146000000     6.449000000
H     0.957000000     1.102000000     7.131000000
H    -0.246000000     0.363000000     6.586000000
O     3.489000000     0.057000000    -7.187000000
H     3.279000000    -0.142000000    -6.274000000
H     3.788000000    -0.776000000    -7.550000000
O    -3.670000000     1.331000000     3.370000000
H    -4.580000000     1.053000000     3.469000000
H    -3.188000000     0.805000000     4.009000000
O    -0.775000000     3.772000000    -6.753000000
H    -0.762000000     4.564000000    -6.216000000
H    -0.947000000     3.064000000    -6.132000000
O    -0.250000000    -6.213000000     1.514000000
H    -0.428000000    -7.114000000     1.783000000
H    -0.419000000    -6.207000000     0.572000000
O    -2.268000000    -6.551000000    -0.225000000
H    -2.486000000    -6.846000000    -1.108000000
H    -2.527000000    -5.630000000    -0.209000000
O    -3.041000000    -5.632000000     5.986000000
H    -3.671000000    -4.989000000     5.661000000
H    -2.281000000    -5.532000000     5.413000000
O    -3.997000000    -4.629000000     1.865000000
H    -3.626000000    -3.792000000     1.586000000
H    -4.536000000    -4.910000000     1.126000000
O    -0.518000000     4.079000000    -0.349000000
H     0.213000000     3.519000000    -0.087000000
H    -1.293000000     3.640000000     0.003000000
O    -3.671000000    -3.657000000    -3.016000000
H    -3.195000000    -3.354000000    -2.243000000
H    -3.104000000    -3.429000000    -3.752000000
O     1.663000000     1.103000000     3.897000000
H     1.192000000     1.204000000     4.724000000
H     1.066000000     1.454000000     3.236000000
O     7.076000000     0.390000000    -1.036000000
H     6.585000000     0.454000000    -1.855000000
H     6.773000000     1.134000000    -0.516000000
O     0.029000000     6.317000000     1.207000000
H     0.221000000     5.671000000     1.886000000
H    -0.299000000     5.800000000     0.471000000
O     0.624000000     0.935000000    -5.053000000
H    -0.119000000     1.457000000    -4.749000000
H     0.289000000     0.462000000    -5.814000000
O    -3.424000000     3.003000000     0.687000000
H    -4.157000000     2.581000000     0.239000000
H    -3.301000000     2.487000000     1.484000000
O     0.605000000    -2.520000000     5.038000000
H     0.139000000    -3.091000000     5.649000000
H    -0.066000000    -2.231000000     4.420000000
O    -1.141000000     4.665000000    -2.994000000
H    -0.655000000     5.459000000    -3.217000000
H    -0.948000000     4.518000000    -2.068000000
O     5.517000000    -1.327000000     2.677000000
H     4.930000000    -0.573000000     2.728000000
H     5.801000000    -1.472000000     3.579000000
O    -5.156000000    -0.992000000     1.312000000
H    -5.719000000    -1.731000000     1.079000000
H    -4.297000000    -1.385000000     1.467000000
O    -3.946000000     1.969000000    -3.016000000
H    -3.986000000     1.267000000    -2.366000000
H    -4.833000000     2.016000000    -3.372000000
O    -2.232000000    -3.863000000    -0.579000000
H    -2.403000000    -3.383000000     0.231000000
H    -1.289000000    -3.774000000    -0.716000000
O     4.117000000    -3.440000000     2.116000000
H     4.036000000    -3.773000000     3.010000000
H     4.758000000    -2.733000000     2.181000000
O     1.852000000     4.433000000    -4.071000000
H     1.713000000     4.046000000    -4.935000000
H     2.740000000     4.169000000    -3.831000000
O    -1.502000000    -4.549000000     3.803000000
H    -1.788000000    -5.147000000     3.112000000
H    -1.730000000    -3.679000000     3.475000000
O     3.174000000    -0.521000000    -4.054000000
H     2.332000000    -0.195000000    -3.739000000
H     3.155000000    -1.459000000    -3.862000000
O     3.289000000    -1.345000000     4.535000000
H     2.674000000    -2.075000000     4.604000000
H     2.734000000    -0.566000000     4.507000000
O     1.522000000    -4.948000000     3.408000000
H     0.923000000    -4.301000000     3.781000000
H     0.996000000    -5.415000000     2.759000000
