144
-2856.28179
O     0.576000000    -1.616000000    -4.651000000
H     1.359000000    -2.147000000    -4.506000000
H    -0.145000000    -2.163000000    -4.340000000
O     0.717000000     3.815000000    -2.672000000
H     0.883000000     3.050000000    -2.122000000
H     1.131000000     4.541000000    -2.205000000
O    -2.142000000     2.803000000     3.883000000
H    -3.072000000     3.000000000     4.000000000
H    -2.119000000     1.871000000     3.667000000
O    -3.427000000     0.694000000     5.672000000
H    -4.378000000     0.675000000     5.558000000
H    -3.078000000     0.509000000     4.801000000
O    -0.071000000    -3.311000000     1.229000000
H    -0.460000000    -2.994000000     0.413000000
H     0.791000000    -2.898000000     1.260000000
O    -4.973000000     3.370000000     3.104000000
H    -5.827000000     3.068000000     3.413000000
H    -4.839000000     2.904000000     2.278000000
O    -3.106000000     2.125000000    -3.378000000
H    -2.282000000     2.523000000    -3.656000000
H    -2.997000000     1.192000000    -3.564000000
O    -6.001000000     1.506000000     5.654000000
H    -6.020000000     0.983000000     6.456000000
H    -5.320000000     2.159000000     5.811000000
O     2.621000000    -3.074000000     1.120000000
H     3.384000000    -3.358000000     0.618000000
H     2.987000000    -2.598000000     1.865000000
O    -7.183000000    -2.553000000     1.257000000
H    -8.113000000    -2.432000000     1.068000000
H    -7.033000000    -3.490000000     1.128000000
O     3.516000000     4.687000000     0.571000000
H     3.165000000     5.575000000     0.505000000
H     2.760000000     4.119000000     0.427000000
O    -0.038000000     4.086000000     2.263000000
H    -0.729000000     3.610000000     2.725000000
H    -0.376000000     4.978000000     2.180000000
O     3.896000000     0.460000000    -4.269000000
H     3.938000000    -0.448000000    -3.970000000
H     3.109000000     0.497000000    -4.814000000
O    -2.885000000    -0.512000000    -4.658000000
H    -2.707000000    -0.599000000    -5.595000000
H    -2.281000000    -1.127000000    -4.241000000
O     2.625000000    -3.199000000    -3.924000000
H     3.410000000    -2.717000000    -3.665000000
H     2.554000000    -3.905000000    -3.282000000
O     3.700000000    -1.896000000     3.516000000
H     4.022000000    -2.770000000     3.738000000
H     2.831000000    -1.853000000     3.915000000
O    -6.221000000    -0.269000000    -0.941000000
H    -5.853000000    -0.246000000    -0.057000000
H    -6.420000000    -1.193000000    -1.093000000
O     5.238000000     3.339000000     2.853000000
H     5.094000000     3.525000000     1.925000000
H     4.547000000     3.824000000     3.304000000
O    -1.719000000     4.334000000     6.146000000
H    -1.602000000     4.064000000     5.235000000
H    -2.568000000     3.970000000     6.397000000
O     4.793000000    -1.803000000    -2.902000000
H     4.738000000    -1.837000000    -1.947000000
H     5.686000000    -2.085000000    -3.101000000
O     3.521000000     1.980000000     6.341000000
H     3.168000000     1.244000000     6.842000000
H     3.301000000     1.777000000     5.431000000
O    -0.778000000    -4.042000000     3.861000000
H    -0.513000000    -3.932000000     2.947000000
H    -0.395000000    -4.879000000     4.122000000
O    -2.758000000    -5.863000000     1.576000000
H    -3.301000000    -5.832000000     0.788000000
H    -2.926000000    -5.030000000     2.016000000
O    -4.997000000    -2.098000000     6.022000000
H    -4.214000000    -1.553000000     5.943000000
H    -5.421000000    -2.035000000     5.166000000
O    -6.916000000    -1.588000000     3.933000000
H    -7.500000000    -0.852000000     3.750000000
H    -7.023000000    -2.171000000     3.181000000
O     1.207000000     3.340000000     0.148000000
H     0.731000000     3.530000000     0.957000000
H     0.966000000     2.439000000    -0.066000000
O    -3.831000000    -2.798000000    -1.569000000
H    -4.182000000    -2.743000000    -0.680000000
H    -4.589000000    -2.655000000    -2.135000000
O     6.721000000    -0.008000000    -4.760000000
H     6.710000000     0.206000000    -3.827000000
H     5.809000000     0.080000000    -5.036000000
O     5.942000000     3.476000000    -0.240000000
H     5.646000000     3.429000000    -1.150000000
H     5.359000000     4.115000000     0.168000000
O     7.237000000     0.528000000    -2.128000000
H     7.818000000     1.256000000    -2.349000000
H     7.110000000     0.602000000    -1.182000000
O    -0.430000000     2.618000000    -4.665000000
H    -0.166000000     3.036000000    -3.846000000
H    -0.228000000     3.265000000    -5.341000000
O    -3.749000000     2.321000000     0.857000000
H    -3.830000000     1.369000000     0.790000000
H    -4.155000000     2.653000000     0.056000000
O    -0.144000000     0.221000000     5.391000000
H    -0.413000000     0.208000000     6.310000000
H    -0.949000000     0.408000000     4.909000000
O    -1.736000000    -2.632000000    -3.763000000
H    -2.132000000    -2.574000000    -2.894000000
H    -2.031000000    -3.475000000    -4.106000000
O     7.253000000     1.293000000     0.830000000
H     7.005000000     2.159000000     0.505000000
H     6.511000000     1.018000000     1.368000000
O     2.504000000     4.591000000     3.819000000
H     1.647000000     4.655000000     3.398000000
H     2.436000000     3.822000000     4.386000000
O    -5.856000000     0.519000000     2.148000000
H    -6.271000000    -0.213000000     2.604000000
H    -4.923000000     0.423000000     2.341000000
O    -5.007000000     2.988000000    -1.424000000
H    -4.507000000     2.572000000    -2.127000000
H    -5.879000000     2.597000000    -1.486000000
O    -3.751000000    -3.394000000     1.943000000
H    -3.580000000    -2.452000000     1.931000000
H    -4.033000000    -3.575000000     2.839000000
O     5.201000000     0.062000000     2.374000000
H     5.853000000     0.305000000     3.032000000
H     4.821000000    -0.753000000     2.703000000
O     4.872000000    -1.480000000    -0.129000000
H     5.266000000    -2.326000000     0.084000000
H     5.129000000    -0.908000000     0.594000000
O     5.219000000     2.764000000    -2.954000000
H     4.701000000     1.994000000    -3.191000000
H     5.920000000     2.791000000    -3.604000000
O     3.209000000     4.802000000    -2.504000000
H     2.860000000     4.879000000    -3.392000000
H     3.843000000     4.086000000    -2.558000000
O    -2.715000000    -2.166000000     4.586000000
H    -2.617000000    -1.393000000     4.030000000
H    -2.036000000    -2.767000000     4.280000000
O     1.436000000     0.780000000    -5.682000000
H     0.858000000     1.322000000    -5.145000000
H     1.177000000    -0.119000000    -5.482000000
O     2.336000000     1.354000000     3.904000000
H     2.902000000     0.747000000     3.426000000
H     1.672000000     0.795000000     4.307000000
O     1.368000000    -2.039000000     4.740000000
H     1.040000000    -1.225000000     5.123000000
H     0.589000000    -2.584000000     4.631000000
O    -1.702000000     0.579000000     7.632000000
H    -2.334000000     0.602000000     6.913000000
H    -1.939000000     1.324000000     8.183000000
