144
-2806.61977
O     2.158000000     0.363000000    -5.579000000
H     2.565000000    -0.496000000    -5.688000000
H     1.337000000     0.182000000    -5.121000000
O    -1.931000000    -5.516000000     4.878000000
H    -2.295000000    -4.767000000     5.350000000
H    -1.922000000    -5.240000000     3.962000000
O    -1.614000000     2.212000000     1.809000000
H    -1.916000000     1.652000000     2.524000000
H    -1.182000000     1.613000000     1.201000000
O     1.299000000     6.096000000     2.047000000
H     1.768000000     5.369000000     1.637000000
H     1.754000000     6.236000000     2.877000000
O    -6.547000000    -4.826000000    -0.514000000
H    -6.835000000    -5.468000000    -1.164000000
H    -5.655000000    -4.602000000    -0.777000000
O    -1.788000000    -1.124000000     7.784000000
H    -1.018000000    -1.056000000     7.219000000
H    -2.155000000    -0.240000000     7.795000000
O    -1.374000000     5.029000000     2.504000000
H    -1.374000000     4.120000000     2.203000000
H    -0.529000000     5.137000000     2.940000000
O     3.778000000     4.712000000    -1.596000000
H     3.885000000     5.592000000    -1.236000000
H     3.207000000     4.265000000    -0.971000000
O    -4.939000000     0.357000000     3.506000000
H    -4.999000000     0.450000000     2.555000000
H    -5.380000000     1.134000000     3.850000000
O     2.125000000    -3.274000000    -3.136000000
H     2.528000000    -2.681000000    -2.502000000
H     1.188000000    -3.093000000    -3.071000000
O    -5.649000000    -0.219000000     0.811000000
H    -5.455000000    -1.060000000     1.225000000
H    -6.604000000    -0.152000000     0.839000000
O    -6.115000000    -0.593000000    -1.817000000
H    -7.059000000    -0.438000000    -1.778000000
H    -5.845000000    -0.656000000    -0.901000000
O    -1.692000000     1.397000000    -6.903000000
H    -1.487000000     0.468000000    -6.792000000
H    -2.217000000     1.432000000    -7.702000000
O    -1.300000000    -5.406000000     1.932000000
H    -2.119000000    -5.856000000     1.726000000
H    -1.384000000    -4.550000000     1.511000000
O     6.378000000     3.310000000    -1.526000000
H     5.569000000     3.692000000    -1.867000000
H     7.069000000     3.891000000    -1.843000000
O    -2.323000000    -7.642000000    -0.903000000
H    -2.919000000    -7.319000000    -1.579000000
H    -2.729000000    -7.374000000    -0.078000000
O    -0.299000000    -0.365000000    -4.423000000
H    -0.629000000    -0.514000000    -5.309000000
H    -0.653000000     0.489000000    -4.175000000
O     4.722000000    -0.559000000     3.012000000
H     4.832000000    -1.496000000     2.850000000
H     4.889000000    -0.148000000     2.164000000
O    -2.198000000     2.493000000     5.863000000
H    -2.184000000     1.883000000     5.126000000
H    -2.633000000     2.009000000     6.566000000
O     3.379000000     0.389000000     5.249000000
H     2.450000000     0.161000000     5.270000000
H     3.698000000     0.020000000     4.426000000
O     1.566000000    -5.190000000     3.064000000
H     0.665000000    -5.502000000     2.990000000
H     1.570000000    -4.655000000     3.858000000
O    -2.881000000     3.361000000    -0.240000000
H    -2.602000000     2.871000000     0.533000000
H    -3.443000000     4.054000000     0.105000000
O     4.364000000    -3.451000000     3.407000000
H     3.505000000    -3.126000000     3.136000000
H     4.414000000    -3.247000000     4.340000000
O     3.054000000     4.375000000     1.173000000
H     3.857000000     4.837000000     1.416000000
H     2.994000000     3.654000000     1.800000000
O    -3.969000000    -6.661000000     1.392000000
H    -4.118000000    -5.749000000     1.642000000
H    -3.978000000    -7.140000000     2.221000000
O    -5.956000000    -2.614000000     2.016000000
H    -6.788000000    -2.809000000     2.446000000
H    -5.380000000    -3.336000000     2.269000000
O    -4.032000000    -3.367000000    -0.524000000
H    -4.664000000    -3.076000000     0.133000000
H    -3.196000000    -3.007000000    -0.227000000
O    -2.923000000     2.583000000    -2.853000000
H    -3.298000000     1.703000000    -2.846000000
H    -2.836000000     2.814000000    -1.928000000
O    -2.224000000     0.471000000     3.673000000
H    -2.029000000    -0.425000000     3.399000000
H    -3.177000000     0.537000000     3.614000000
O     3.537000000     5.410000000    -4.101000000
H     3.029000000     4.648000000    -4.380000000
H     3.939000000     5.140000000    -3.275000000
O    -1.288000000     5.194000000    -2.012000000
H    -1.874000000     4.438000000    -2.038000000
H    -1.857000000     5.930000000    -1.785000000
O    -0.675000000     3.008000000    -4.663000000
H    -1.300000000     2.791000000    -3.972000000
H    -0.957000000     2.486000000    -5.414000000
O    -0.323000000    -1.870000000     5.382000000
H     0.130000000    -2.682000000     5.609000000
H    -0.658000000    -2.022000000     4.498000000
O     2.449000000     2.847000000     3.388000000
H     2.420000000     1.895000000     3.291000000
H     1.561000000     3.088000000     3.653000000
O     2.125000000     7.849000000     0.094000000
H     1.259000000     8.144000000    -0.187000000
H     1.948000000     7.150000000     0.723000000
O     5.578000000     2.624000000     0.926000000
H     5.707000000     3.194000000     1.684000000
H     5.939000000     3.119000000     0.190000000
O    -0.114000000    -8.073000000     1.366000000
H    -0.813000000    -8.610000000     1.739000000
H    -0.387000000    -7.172000000     1.540000000
O    -3.930000000    -0.140000000    -3.226000000
H    -4.620000000    -0.407000000    -2.618000000
H    -4.135000000    -0.602000000    -4.039000000
O    -0.521000000    -2.900000000    -3.118000000
H    -0.619000000    -2.068000000    -3.582000000
H    -1.408000000    -3.123000000    -2.837000000
O     5.429000000    -0.112000000     0.317000000
H     5.370000000     0.843000000     0.298000000
H     5.761000000    -0.350000000    -0.549000000
O     3.080000000    -1.376000000    -1.628000000
H     3.953000000    -1.766000000    -1.673000000
H     2.893000000    -1.314000000    -0.691000000
O     0.660000000     6.341000000    -3.618000000
H     1.530000000     5.940000000    -3.611000000
H     0.070000000     5.639000000    -3.344000000
O    -3.747000000    -4.048000000     2.734000000
H    -3.203000000    -3.625000000     2.069000000
H    -3.412000000    -3.713000000     3.566000000
O     2.177000000     3.164000000    -5.151000000
H     1.288000000     3.317000000    -4.831000000
H     2.198000000     2.231000000    -5.364000000
O     0.552000000     0.719000000     4.650000000
H     0.286000000    -0.136000000     4.989000000
H    -0.236000000     1.068000000     4.234000000
O    -2.936000000    -3.470000000     6.543000000
H    -2.645000000    -2.817000000     7.179000000
H    -3.859000000    -3.613000000     6.751000000
O    -2.987000000    -3.954000000    -2.893000000
H    -3.433000000    -3.786000000    -2.063000000
H    -3.057000000    -4.900000000    -3.015000000
O     0.853000000    -4.343000000     5.921000000
H     1.458000000    -4.230000000     6.654000000
H     0.236000000    -5.010000000     6.220000000
