144
-2819.23340
O    -2.797000000     3.515000000    -2.648000000
H    -1.992000000     3.763000000    -2.193000000
H    -3.256000000     2.946000000    -2.029000000
O     0.527000000     1.527000000    -5.683000000
H     1.106000000     2.289000000    -5.681000000
H     0.710000000     1.088000000    -6.514000000
O    -0.276000000     4.157000000    -1.530000000
H     0.292000000     4.919000000    -1.417000000
H     0.275000000     3.410000000    -1.293000000
O     1.740000000    -3.471000000    -4.268000000
H     1.814000000    -3.462000000    -3.314000000
H     1.201000000    -2.706000000    -4.472000000
O    -5.330000000     0.717000000     4.585000000
H    -5.125000000     1.543000000     5.024000000
H    -6.062000000     0.929000000     4.006000000
O     0.618000000     6.651000000    -1.197000000
H     0.585000000     7.235000000    -1.955000000
H     0.838000000     7.224000000    -0.463000000
O    -7.331000000    -2.053000000     3.727000000
H    -7.103000000    -1.345000000     4.329000000
H    -6.493000000    -2.332000000     3.358000000
O     2.928000000     5.294000000    -1.561000000
H     2.954000000     5.177000000    -2.511000000
H     2.241000000     5.945000000    -1.418000000
O    -4.579000000    -3.343000000     3.028000000
H    -4.410000000    -4.220000000     3.372000000
H    -3.713000000    -2.940000000     2.962000000
O    -1.700000000    -2.901000000    -4.949000000
H    -1.028000000    -2.219000000    -4.951000000
H    -2.472000000    -2.476000000    -4.576000000
O    -2.446000000    -1.443000000    -2.233000000
H    -1.902000000    -1.508000000    -1.448000000
H    -2.100000000    -0.684000000    -2.702000000
O    -1.825000000    -5.417000000     1.835000000
H    -1.925000000    -4.517000000     2.147000000
H    -1.891000000    -5.349000000     0.883000000
O     2.766000000     3.381000000    -5.375000000
H     2.972000000     4.230000000    -4.984000000
H     2.944000000     3.497000000    -6.308000000
O     3.173000000    -1.630000000    -1.677000000
H     2.333000000    -1.827000000    -1.264000000
H     3.402000000    -2.429000000    -2.151000000
O     3.261000000     0.136000000     5.015000000
H     3.092000000    -0.028000000     4.087000000
H     2.580000000     0.756000000     5.276000000
O    -1.043000000    -4.850000000    -3.311000000
H    -0.106000000    -4.673000000    -3.382000000
H    -1.462000000    -4.104000000    -3.739000000
O    -4.277000000    -3.531000000    -3.487000000
H    -5.025000000    -3.772000000    -2.941000000
H    -3.638000000    -3.172000000    -2.872000000
O     1.016000000    -4.281000000     1.550000000
H     0.122000000    -4.003000000     1.750000000
H     1.571000000    -3.660000000     2.021000000
O     0.532000000    -3.194000000     5.505000000
H     0.460000000    -2.631000000     6.275000000
H     1.223000000    -2.792000000     4.978000000
O     4.671000000     3.022000000    -0.294000000
H     4.034000000     3.447000000    -0.868000000
H     4.211000000     2.918000000     0.539000000
O    -2.169000000    -5.997000000    -1.072000000
H    -1.885000000    -5.613000000    -1.901000000
H    -2.982000000    -5.537000000    -0.862000000
O     6.314000000     1.288000000     0.925000000
H     6.999000000     1.768000000     1.391000000
H     5.915000000     1.940000000     0.349000000
O     4.804000000     0.370000000    -2.349000000
H     4.348000000    -0.461000000    -2.215000000
H     4.434000000     0.955000000    -1.687000000
O    -0.669000000     5.077000000     1.854000000
H    -1.387000000     5.225000000     2.470000000
H    -1.011000000     5.375000000     1.011000000
O     1.041000000     4.991000000     4.112000000
H     0.575000000     5.113000000     3.285000000
H     1.045000000     5.860000000     4.514000000
O     2.216000000    -4.208000000    -1.536000000
H     1.891000000    -4.187000000    -0.636000000
H     2.524000000    -5.106000000    -1.658000000
O     2.447000000    -2.187000000     3.016000000
H     3.097000000    -2.151000000     3.719000000
H     2.611000000    -1.398000000     2.499000000
O     2.782000000     0.310000000     1.960000000
H     3.071000000     1.180000000     2.233000000
H     1.910000000     0.452000000     1.592000000
O     5.293000000    -1.061000000     1.751000000
H     5.736000000    -0.223000000     1.620000000
H     4.410000000    -0.921000000     1.409000000
O    -1.886000000     0.607000000    -4.038000000
H    -2.768000000     0.895000000    -4.274000000
H    -1.310000000     1.286000000    -4.391000000
O     0.406000000    -1.085000000    -4.891000000
H     0.021000000    -0.209000000    -4.864000000
H     0.361000000    -1.338000000    -5.813000000
O    -3.772000000    -3.482000000    -0.211000000
H    -4.375000000    -2.750000000    -0.079000000
H    -3.124000000    -3.387000000     0.487000000
O    -3.166000000     1.714000000     6.396000000
H    -3.558000000     0.897000000     6.707000000
H    -2.309000000     1.454000000     6.057000000
O     7.345000000     4.051000000    -0.990000000
H     6.388000000     4.045000000    -0.993000000
H     7.590000000     3.602000000    -1.799000000
O    -2.208000000    -2.871000000     4.796000000
H    -1.308000000    -2.992000000     5.099000000
H    -2.160000000    -2.129000000     4.194000000
O     4.118000000     5.303000000    -4.153000000
H     3.673000000     6.128000000    -4.347000000
H     4.997000000     5.414000000    -4.515000000
O    -0.685000000     0.512000000     4.955000000
H    -0.466000000    -0.094000000     5.663000000
H    -1.069000000    -0.043000000     4.276000000
O    -1.930000000    -8.111000000     2.537000000
H    -2.045000000    -7.314000000     2.021000000
H    -1.012000000    -8.349000000     2.410000000
O    -3.755000000     2.161000000    -0.255000000
H    -3.845000000     2.995000000     0.205000000
H    -3.423000000     1.556000000     0.409000000
O    -5.229000000    -1.468000000     1.207000000
H    -4.902000000    -2.085000000     1.862000000
H    -5.100000000    -0.607000000     1.603000000
O     1.645000000     2.266000000     5.520000000
H     1.602000000     3.182000000     5.248000000
H     0.805000000     1.896000000     5.248000000
O    -0.308000000    -1.416000000     7.469000000
H     0.293000000    -0.759000000     7.821000000
H    -0.616000000    -1.895000000     8.239000000
O     4.910000000     1.632000000    -5.029000000
H     4.049000000     2.047000000    -4.987000000
H     4.951000000     1.085000000    -4.245000000
O    -1.057000000    -6.261000000     4.846000000
H    -1.275000000    -6.489000000     3.942000000
H    -1.871000000    -5.913000000     5.209000000
O     3.026000000     2.989000000     2.352000000
H     2.371000000     3.646000000     2.118000000
H     3.588000000     3.427000000     2.991000000
O    -3.440000000    -5.038000000     5.637000000
H    -3.585000000    -4.558000000     6.452000000
H    -2.905000000    -4.450000000     5.104000000
O    -3.837000000     0.549000000     2.365000000
H    -4.322000000     0.897000000     3.112000000
H    -3.093000000     0.090000000     2.755000000
O    -3.046000000     5.041000000    -4.854000000
H    -2.869000000     4.536000000    -4.060000000
H    -3.073000000     4.386000000    -5.552000000
