144
-2819.99797
O    -2.640000000    -0.523000000    -4.301000000
H    -1.800000000    -0.781000000    -4.681000000
H    -2.569000000     0.424000000    -4.182000000
O     3.393000000     1.246000000    -0.734000000
H     2.638000000     0.676000000    -0.589000000
H     3.751000000     1.397000000     0.141000000
O     3.015000000    -5.379000000    -3.882000000
H     3.528000000    -4.894000000    -4.529000000
H     2.160000000    -4.950000000    -3.885000000
O     2.292000000     5.632000000     0.005000000
H     2.440000000     6.159000000    -0.780000000
H     1.778000000     4.885000000    -0.301000000
O     2.504000000     2.955000000    -4.772000000
H     3.016000000     3.490000000    -5.380000000
H     1.703000000     3.459000000    -4.626000000
O     3.986000000    -1.579000000     0.400000000
H     4.036000000    -0.867000000     1.038000000
H     4.736000000    -1.437000000    -0.177000000
O    -4.235000000    -0.348000000     1.647000000
H    -3.775000000    -0.800000000     2.355000000
H    -5.104000000    -0.166000000     2.004000000
O    -4.043000000    -3.844000000     1.493000000
H    -3.686000000    -3.055000000     1.900000000
H    -4.142000000    -4.462000000     2.218000000
O    -4.345000000    -4.404000000    -1.230000000
H    -4.584000000    -3.571000000    -1.637000000
H    -4.283000000    -4.206000000    -0.296000000
O     3.981000000    -2.202000000     3.763000000
H     4.112000000    -2.084000000     2.822000000
H     4.692000000    -2.784000000     4.032000000
O    -3.736000000     6.590000000     1.763000000
H    -2.991000000     7.144000000     1.998000000
H    -3.342000000     5.822000000     1.350000000
O    -0.187000000     5.373000000     2.623000000
H    -0.190000000     6.236000000     2.210000000
H     0.032000000     4.768000000     1.914000000
O     0.279000000    -0.535000000    -5.644000000
H    -0.467000000    -0.259000000    -6.178000000
H     0.732000000    -1.184000000    -6.182000000
O    -3.147000000     3.958000000    -1.156000000
H    -2.957000000     3.041000000    -0.956000000
H    -3.985000000     4.128000000    -0.726000000
O    -2.751000000     3.768000000     1.541000000
H    -1.987000000     3.737000000     0.965000000
H    -2.384000000     3.869000000     2.420000000
O    -0.726000000    -1.628000000     4.687000000
H    -0.538000000    -1.819000000     5.606000000
H     0.060000000    -1.182000000     4.370000000
O     1.338000000    -4.183000000     4.429000000
H     0.762000000    -4.905000000     4.680000000
H     0.749000000    -3.440000000     4.299000000
O    -1.311000000     6.028000000    -1.492000000
H    -2.111000000     5.508000000    -1.410000000
H    -0.622000000     5.464000000    -1.142000000
O    -5.493000000     3.254000000     1.631000000
H    -5.974000000     3.942000000     1.172000000
H    -4.572000000     3.450000000     1.459000000
O     2.121000000    -5.536000000     2.267000000
H     1.923000000    -4.653000000     1.953000000
H     2.148000000    -5.451000000     3.220000000
O     0.937000000    -3.891000000    -4.064000000
H     0.139000000    -4.205000000    -3.639000000
H     0.724000000    -3.000000000    -4.343000000
O    -1.936000000     3.598000000     4.306000000
H    -1.675000000     2.996000000     5.003000000
H    -1.111000000     3.932000000     3.955000000
O     3.655000000     7.865000000     2.076000000
H     3.298000000     6.981000000     1.996000000
H     4.595000000     7.734000000     2.204000000
O    -4.285000000    -2.229000000    -3.299000000
H    -3.772000000    -1.618000000    -3.827000000
H    -4.988000000    -1.694000000    -2.930000000
O    -3.120000000     1.203000000    -0.627000000
H    -2.268000000     0.768000000    -0.664000000
H    -3.601000000     0.729000000     0.052000000
O     0.849000000    -6.956000000    -1.480000000
H     1.674000000    -7.034000000    -1.960000000
H     0.279000000    -6.457000000    -2.064000000
O     3.854000000     4.088000000    -2.299000000
H     3.884000000     3.527000000    -1.524000000
H     3.196000000     3.683000000    -2.863000000
O     0.172000000     2.569000000    -6.889000000
H    -0.140000000     2.673000000    -5.990000000
H     1.078000000     2.877000000    -6.865000000
O     0.467000000     7.875000000     1.487000000
H     1.063000000     7.179000000     1.209000000
H     0.980000000     8.678000000     1.402000000
O    -6.175000000    -1.491000000    -0.042000000
H    -5.348000000    -1.421000000     0.435000000
H    -6.067000000    -0.910000000    -0.795000000
O     1.832000000    -0.556000000     4.193000000
H     1.669000000    -0.823000000     3.288000000
H     2.716000000    -0.870000000     4.380000000
O     3.407000000     7.152000000    -2.202000000
H     3.510000000     6.236000000    -2.459000000
H     4.141000000     7.602000000    -2.618000000
O    -2.867000000    -6.475000000     1.219000000
H    -3.035000000    -5.605000000     0.858000000
H    -1.934000000    -6.470000000     1.434000000
O    -0.195000000    -6.824000000     0.916000000
H    -0.211000000    -7.295000000     0.082000000
H     0.701000000    -6.494000000     0.987000000
O     4.172000000    -3.444000000    -1.695000000
H     3.686000000    -2.916000000    -1.061000000
H     3.497000000    -3.829000000    -2.254000000
O    -1.480000000    -3.484000000    -2.755000000
H    -2.424000000    -3.371000000    -2.869000000
H    -1.215000000    -2.746000000    -2.207000000
O    -2.368000000    -4.665000000     5.830000000
H    -1.614000000    -5.249000000     5.748000000
H    -2.358000000    -4.147000000     5.025000000
O     1.341000000     5.419000000     4.992000000
H     0.952000000     5.248000000     4.134000000
H     1.133000000     4.640000000     5.508000000
O     3.776000000     0.842000000     1.862000000
H     4.504000000     1.177000000     2.387000000
H     3.112000000     1.530000000     1.908000000
O     4.124000000     4.950000000     1.810000000
H     4.993000000     5.277000000     1.577000000
H     3.586000000     5.127000000     1.038000000
O     2.587000000     0.281000000    -4.466000000
H     1.737000000    -0.140000000    -4.590000000
H     2.419000000     1.210000000    -4.621000000
O     2.185000000     3.130000000     2.805000000
H     3.012000000     3.612000000     2.807000000
H     1.704000000     3.483000000     2.057000000
O     0.177000000     4.249000000    -3.901000000
H     0.280000000     5.181000000    -3.709000000
H     0.393000000     3.810000000    -3.078000000
O     4.662000000     0.063000000    -2.964000000
H     4.204000000     0.670000000    -2.383000000
H     4.153000000     0.076000000    -3.775000000
O    -2.973000000    -2.083000000     3.372000000
H    -2.191000000    -1.700000000     3.769000000
H    -3.571000000    -2.223000000     4.107000000
O    -0.906000000    -6.111000000    -3.498000000
H    -0.936000000    -6.584000000    -4.330000000
H    -1.588000000    -5.445000000    -3.577000000
O    -2.043000000     2.125000000    -4.150000000
H    -1.565000000     2.927000000    -4.361000000
H    -2.609000000     2.369000000    -3.417000000
O     0.686000000     2.358000000     4.984000000
H     1.004000000     1.561000000     5.409000000
H     1.192000000     2.415000000     4.174000000
