144
-2813.07285
O     1.994000000     5.123000000    -2.654000000
H     2.357000000     4.887000000    -1.800000000
H     2.508000000     5.882000000    -2.931000000
O    -1.439000000     3.527000000    -4.145000000
H    -0.500000000     3.707000000    -4.098000000
H    -1.752000000     4.072000000    -4.867000000
O    -5.850000000     5.201000000     0.507000000
H    -6.376000000     5.348000000    -0.280000000
H    -4.994000000     4.931000000     0.175000000
O    -2.144000000     4.119000000     1.889000000
H    -2.562000000     3.281000000     2.089000000
H    -1.228000000     3.995000000     2.138000000
O     0.576000000    -1.608000000     4.467000000
H     1.031000000    -0.782000000     4.302000000
H     0.488000000    -2.009000000     3.602000000
O    -3.973000000     0.306000000    -1.494000000
H    -4.200000000     1.096000000    -1.003000000
H    -4.634000000     0.255000000    -2.185000000
O    -0.071000000    -3.883000000     6.044000000
H    -0.933000000    -3.838000000     6.459000000
H     0.085000000    -2.995000000     5.722000000
O     2.113000000    -4.748000000     3.309000000
H     1.732000000    -5.181000000     4.073000000
H     1.364000000    -4.373000000     2.847000000
O     1.396000000     3.992000000    -4.933000000
H     2.260000000     4.192000000    -5.294000000
H     1.373000000     4.454000000    -4.095000000
O    -2.014000000    -1.615000000    -1.511000000
H    -2.686000000    -0.945000000    -1.637000000
H    -1.293000000    -1.153000000    -1.083000000
O    -2.293000000     0.808000000    -3.644000000
H    -2.071000000     1.717000000    -3.843000000
H    -2.522000000     0.815000000    -2.715000000
O     1.566000000     5.511000000     1.008000000
H     1.240000000     4.921000000     1.688000000
H     2.106000000     6.145000000     1.480000000
O    -3.367000000    -1.930000000     4.575000000
H    -2.514000000    -1.837000000     4.151000000
H    -3.963000000    -2.169000000     3.865000000
O     4.846000000    -4.322000000     2.662000000
H     4.965000000    -4.360000000     3.611000000
H     3.900000000    -4.249000000     2.541000000
O     0.090000000     1.239000000    -6.019000000
H    -0.342000000     2.047000000    -6.296000000
H     0.856000000     1.534000000    -5.527000000
O     1.786000000     0.585000000     3.872000000
H     2.342000000     0.235000000     3.175000000
H     2.390000000     1.061000000     4.442000000
O     3.789000000     1.771000000     0.750000000
H     3.306000000     2.334000000     0.145000000
H     3.834000000     2.277000000     1.562000000
O     3.866000000    -0.517000000     2.467000000
H     4.714000000    -0.886000000     2.219000000
H     3.675000000     0.125000000     1.783000000
O     3.336000000    -3.603000000    -0.391000000
H     2.412000000    -3.730000000    -0.177000000
H     3.330000000    -3.002000000    -1.136000000
O    -0.649000000     1.872000000     4.558000000
H    -0.698000000     1.951000000     5.511000000
H     0.156000000     1.380000000     4.400000000
O    -0.719000000     6.821000000    -0.131000000
H    -0.468000000     7.724000000     0.066000000
H     0.080000000     6.314000000     0.011000000
O     1.829000000    -8.716000000    -0.467000000
H     1.871000000    -7.864000000    -0.033000000
H     1.582000000    -8.514000000    -1.369000000
O     3.414000000     4.361000000    -0.438000000
H     2.832000000     4.640000000     0.269000000
H     4.294000000     4.444000000    -0.070000000
O    -0.192000000    -7.765000000     1.725000000
H    -0.381000000    -8.505000000     2.301000000
H     0.760000000    -7.769000000     1.633000000
O     2.679000000     0.193000000    -4.224000000
H     3.149000000     1.011000000    -4.060000000
H     3.032000000    -0.419000000    -3.579000000
O    -1.327000000    -5.311000000     3.437000000
H    -0.544000000    -5.448000000     3.971000000
H    -1.124000000    -4.539000000     2.908000000
O    -2.898000000    -7.444000000     0.930000000
H    -2.005000000    -7.732000000     1.118000000
H    -2.849000000    -6.488000000     0.946000000
O    -3.237000000    -0.587000000     7.183000000
H    -3.054000000    -0.673000000     6.247000000
H    -4.030000000    -1.105000000     7.320000000
O    -3.301000000     1.810000000     2.752000000
H    -2.809000000     1.882000000     3.570000000
H    -3.579000000     0.895000000     2.720000000
O    -4.892000000     2.448000000     0.124000000
H    -5.705000000     2.911000000     0.326000000
H    -4.548000000     2.184000000     0.978000000
O    -3.359000000    -6.560000000     4.899000000
H    -2.595000000    -6.272000000     4.399000000
H    -3.317000000    -7.516000000     4.870000000
O    -1.267000000    -2.928000000    -3.912000000
H    -1.380000000    -2.510000000    -3.058000000
H    -0.850000000    -2.258000000    -4.454000000
O    -1.057000000    -5.331000000    -0.544000000
H    -1.066000000    -6.206000000    -0.155000000
H    -0.299000000    -4.901000000    -0.148000000
O     3.568000000     2.425000000    -2.918000000
H     3.277000000     3.015000000    -3.613000000
H     4.143000000     2.961000000    -2.373000000
O    -4.664000000    -5.031000000     1.508000000
H    -4.695000000    -4.501000000     2.305000000
H    -4.126000000    -4.521000000     0.902000000
O     0.407000000    -1.334000000    -5.236000000
H     1.226000000    -1.164000000    -4.770000000
H     0.136000000    -0.477000000    -5.565000000
O    -0.634000000     6.586000000    -3.334000000
H    -0.342000000     5.849000000    -2.797000000
H    -1.466000000     6.853000000    -2.943000000
O    -2.813000000    -2.973000000     1.274000000
H    -1.947000000    -2.882000000     1.670000000
H    -2.700000000    -2.656000000     0.377000000
O    -3.282000000     7.123000000    -2.476000000
H    -3.834000000     6.341000000    -2.484000000
H    -3.585000000     7.622000000    -1.718000000
O     0.842000000    -6.408000000     5.089000000
H     0.348000000    -6.113000000     5.854000000
H     0.700000000    -7.354000000     5.062000000
O     4.874000000     0.227000000    -1.435000000
H     4.727000000     0.174000000    -0.490000000
H     4.514000000     1.077000000    -1.686000000
O    -4.863000000     4.920000000    -2.792000000
H    -4.119000000     4.330000000    -2.916000000
H    -5.592000000     4.481000000    -3.231000000
O    -3.182000000    -4.007000000    -1.499000000
H    -2.788000000    -3.190000000    -1.804000000
H    -2.448000000    -4.511000000    -1.149000000
O    -4.841000000    -1.301000000     2.123000000
H    -5.589000000    -1.892000000     2.037000000
H    -4.117000000    -1.770000000     1.709000000
O     0.854000000     4.054000000     3.362000000
H     1.785000000     3.831000000     3.359000000
H     0.420000000     3.263000000     3.681000000
O     2.129000000    -6.139000000     0.165000000
H     3.013000000    -5.791000000     0.049000000
H     1.566000000    -5.365000000     0.173000000
O     4.064000000    -1.965000000    -2.712000000
H     4.705000000    -1.377000000    -2.313000000
H     4.591000000    -2.636000000    -3.146000000
O    -3.147000000     6.210000000     0.417000000
H    -2.422000000     6.754000000     0.110000000
H    -2.724000000     5.478000000     0.865000000
