144
-2809.76460
O     2.473000000    -1.776000000    -1.222000000
H     2.142000000    -0.990000000    -0.787000000
H     2.594000000    -1.513000000    -2.134000000
O    -2.976000000     4.453000000    -3.089000000
H    -2.089000000     4.801000000    -2.996000000
H    -2.902000000     3.786000000    -3.772000000
O    -2.632000000     3.730000000    -0.118000000
H    -1.702000000     3.954000000    -0.130000000
H    -3.080000000     4.571000000    -0.033000000
O    -4.690000000    -2.352000000     5.251000000
H    -4.954000000    -2.326000000     6.171000000
H    -4.650000000    -1.433000000     4.988000000
O    -2.641000000    -1.398000000    -5.040000000
H    -3.519000000    -1.164000000    -4.740000000
H    -2.313000000    -2.001000000    -4.373000000
O    -5.460000000    -5.639000000     1.626000000
H    -5.670000000    -6.183000000     0.867000000
H    -4.724000000    -5.099000000     1.338000000
O     2.666000000    -1.213000000     3.930000000
H     2.154000000    -1.949000000     3.596000000
H     2.119000000    -0.445000000     3.764000000
O     3.789000000     1.661000000     2.084000000
H     4.329000000     0.952000000     2.433000000
H     4.419000000     2.321000000     1.793000000
O     2.975000000    -1.634000000     6.681000000
H     3.139000000    -1.268000000     5.812000000
H     2.059000000    -1.423000000     6.861000000
O     5.339000000    -2.256000000    -0.719000000
H     5.844000000    -1.507000000    -0.402000000
H     4.497000000    -1.884000000    -0.980000000
O     3.557000000    -0.348000000    -7.062000000
H     2.939000000     0.139000000    -7.606000000
H     3.545000000     0.106000000    -6.220000000
O    -3.852000000    -4.381000000    -2.194000000
H    -3.638000000    -4.246000000    -1.271000000
H    -3.173000000    -3.903000000    -2.670000000
O     0.797000000     2.530000000    -6.156000000
H     0.959000000     2.894000000    -7.027000000
H     0.050000000     1.944000000    -6.278000000
O    -1.107000000     0.688000000    -6.417000000
H    -0.776000000     0.218000000    -7.182000000
H    -1.433000000     0.001000000    -5.836000000
O     0.680000000    -2.518000000    -5.212000000
H    -0.207000000    -2.845000000    -5.357000000
H     1.212000000    -2.971000000    -5.866000000
O     3.808000000    -3.402000000     1.770000000
H     2.879000000    -3.299000000     1.565000000
H     4.260000000    -3.159000000     0.962000000
O     2.026000000    -4.340000000    -2.387000000
H     2.117000000    -3.493000000    -1.951000000
H     2.123000000    -4.983000000    -1.685000000
O     5.106000000    -0.533000000     3.233000000
H     5.699000000    -1.216000000     2.922000000
H     4.327000000    -1.007000000     3.526000000
O     4.636000000    -4.960000000     3.709000000
H     4.286000000    -4.551000000     4.500000000
H     4.508000000    -4.305000000     3.023000000
O    -5.538000000    -1.695000000    -0.721000000
H    -5.621000000    -1.985000000     0.188000000
H    -4.904000000    -2.297000000    -1.108000000
O    -1.400000000    -2.748000000    -3.068000000
H    -1.392000000    -2.439000000    -2.162000000
H    -0.476000000    -2.804000000    -3.310000000
O     0.865000000     4.439000000    -4.344000000
H     1.354000000     4.238000000    -3.546000000
H     0.826000000     3.607000000    -4.817000000
O     1.892000000     7.426000000    -2.931000000
H     2.105000000     7.513000000    -3.860000000
H     2.234000000     6.566000000    -2.687000000
O    -2.937000000     3.177000000    -5.489000000
H    -2.422000000     2.388000000    -5.659000000
H    -2.561000000     3.838000000    -6.070000000
O    -2.759000000    -4.099000000     4.272000000
H    -3.333000000    -3.395000000     4.573000000
H    -2.175000000    -3.677000000     3.641000000
O    -5.532000000     0.742000000    -3.387000000
H    -5.438000000    -0.165000000    -3.097000000
H    -6.476000000     0.898000000    -3.383000000
O     0.967000000    -4.967000000     1.694000000
H     0.794000000    -4.062000000     1.955000000
H     0.407000000    -5.493000000     2.265000000
O    -0.928000000     6.338000000    -3.196000000
H    -0.350000000     5.742000000    -3.672000000
H    -0.336000000     6.879000000    -2.673000000
O     2.658000000     4.968000000    -1.941000000
H     3.247000000     4.581000000    -2.589000000
H     3.235000000     5.248000000    -1.230000000
O    -0.568000000    -5.470000000    -0.795000000
H    -0.241000000    -5.871000000    -1.601000000
H     0.162000000    -5.540000000    -0.180000000
O    -4.510000000     2.002000000     0.054000000
H    -4.080000000     1.204000000    -0.255000000
H    -3.834000000     2.677000000    -0.005000000
O    -3.730000000     2.146000000     3.294000000
H    -4.263000000     2.252000000     2.507000000
H    -2.830000000     2.104000000     2.970000000
O    -0.472000000    -6.424000000     3.944000000
H    -1.416000000    -6.387000000     3.787000000
H    -0.260000000    -5.575000000     4.331000000
O     0.306000000     4.722000000    -0.371000000
H     0.997000000     4.977000000     0.241000000
H     0.774000000     4.370000000    -1.128000000
O     1.579000000     1.128000000     3.649000000
H     1.511000000     1.810000000     4.317000000
H     2.239000000     1.455000000     3.038000000
O    -1.013000000     1.551000000     2.948000000
H    -0.839000000     1.477000000     2.010000000
H    -0.175000000     1.350000000     3.364000000
O     1.590000000     4.819000000     2.549000000
H     0.817000000     4.275000000     2.403000000
H     1.241000000     5.700000000     2.686000000
O    -1.779000000    -3.484000000     6.962000000
H    -2.201000000    -2.624000000     6.970000000
H    -1.541000000    -3.625000000     6.046000000
O     3.181000000     1.344000000    -4.986000000
H     3.758000000     2.034000000    -4.659000000
H     2.468000000     1.813000000    -5.420000000
O     2.866000000    -1.068000000    -4.058000000
H     2.936000000    -0.168000000    -4.374000000
H     2.082000000    -1.412000000    -4.485000000
O     0.248000000    -3.914000000     4.888000000
H     0.360000000    -3.387000000     4.096000000
H     0.739000000    -3.442000000     5.561000000
O     3.969000000     5.176000000     0.201000000
H     4.560000000     4.536000000     0.597000000
H     3.507000000     5.566000000     0.944000000
O     2.639000000    -5.979000000    -0.241000000
H     3.204000000    -6.622000000     0.188000000
H     2.215000000    -5.515000000     0.481000000
O     4.497000000     3.281000000    -3.206000000
H     5.167000000     3.189000000    -2.528000000
H     4.850000000     3.939000000    -3.804000000
O    -1.302000000     0.620000000     5.510000000
H    -1.295000000     1.577000000     5.542000000
H    -1.467000000     0.412000000     4.591000000
O    -2.671000000    -3.809000000     0.356000000
H    -2.276000000    -3.430000000     1.141000000
H    -1.964000000    -4.309000000    -0.051000000
O    -6.968000000     0.712000000     0.433000000
H    -6.906000000    -0.109000000    -0.056000000
H    -6.094000000     0.835000000     0.806000000
O    -4.337000000    -1.592000000     2.082000000
H    -4.196000000    -2.521000000     2.267000000
H    -3.485000000    -1.185000000     2.238000000
