144
-2814.60863
O    -0.505000000     6.438000000     2.575000000
H     0.360000000     6.230000000     2.221000000
H    -0.670000000     5.754000000     3.223000000
O     4.431000000    -0.373000000     4.661000000
H     3.601000000    -0.076000000     5.034000000
H     4.195000000    -1.130000000     4.125000000
O     2.947000000     4.178000000    -2.179000000
H     3.733000000     3.968000000    -2.682000000
H     2.307000000     4.450000000    -2.836000000
O     0.773000000    -2.124000000     4.937000000
H     1.642000000    -2.276000000     4.566000000
H     0.282000000    -2.919000000     4.729000000
O    -2.525000000     5.915000000     0.236000000
H    -2.088000000     6.343000000    -0.500000000
H    -2.004000000     6.162000000     1.000000000
O    -3.402000000     2.840000000    -2.383000000
H    -3.730000000     2.937000000    -1.489000000
H    -3.423000000     1.897000000    -2.544000000
O    -1.835000000    -2.784000000    -5.447000000
H    -2.667000000    -3.196000000    -5.681000000
H    -1.997000000    -2.388000000    -4.591000000
O     3.803000000    -2.690000000     3.716000000
H     4.237000000    -3.279000000     4.332000000
H     3.461000000    -3.267000000     3.033000000
O     1.107000000    -4.088000000    -3.705000000
H     0.761000000    -3.943000000    -2.824000000
H     0.351000000    -4.379000000    -4.215000000
O    -4.465000000    -4.718000000    -0.729000000
H    -4.958000000    -4.982000000    -1.505000000
H    -5.090000000    -4.800000000    -0.009000000
O     0.575000000    -6.429000000    -0.093000000
H    -0.230000000    -6.675000000    -0.550000000
H     0.490000000    -5.487000000     0.052000000
O    -3.597000000     0.207000000    -2.615000000
H    -4.148000000    -0.275000000    -1.998000000
H    -2.967000000    -0.441000000    -2.930000000
O     3.247000000    -4.284000000     1.385000000
H     2.318000000    -4.362000000     1.168000000
H     3.637000000    -5.098000000     1.068000000
O    -1.530000000    -4.790000000     2.171000000
H    -0.836000000    -4.472000000     1.594000000
H    -2.318000000    -4.338000000     1.870000000
O    -2.068000000    -5.712000000    -1.897000000
H    -2.828000000    -5.391000000    -1.411000000
H    -1.403000000    -5.034000000    -1.777000000
O     2.525000000     1.284000000    -2.788000000
H     2.814000000     2.194000000    -2.716000000
H     2.541000000     0.955000000    -1.889000000
O    -2.189000000     0.476000000    -5.684000000
H    -2.035000000    -0.464000000    -5.778000000
H    -1.383000000     0.812000000    -5.292000000
O     1.926000000     6.784000000     0.249000000
H     2.139000000     7.051000000    -0.645000000
H     2.402000000     5.963000000     0.373000000
O    -4.360000000     7.609000000     0.994000000
H    -3.954000000     6.782000000     0.734000000
H    -3.658000000     8.255000000     0.913000000
O     1.298000000    -7.348000000     2.359000000
H     0.855000000    -6.588000000     2.738000000
H     1.091000000    -7.305000000     1.426000000
O    -2.437000000    -2.652000000    -2.689000000
H    -1.864000000    -3.119000000    -2.082000000
H    -3.318000000    -2.956000000    -2.470000000
O     5.058000000    -3.799000000    -1.337000000
H     4.112000000    -3.880000000    -1.458000000
H     5.287000000    -4.519000000    -0.749000000
O     0.875000000     4.912000000    -4.421000000
H     1.149000000     4.489000000    -5.235000000
H    -0.008000000     4.577000000    -4.262000000
O    -4.776000000     4.288000000     3.215000000
H    -4.786000000     5.229000000     3.388000000
H    -4.106000000     3.943000000     3.806000000
O     2.485000000    -2.703000000    -6.084000000
H     2.961000000    -2.160000000    -5.456000000
H     1.883000000    -3.218000000    -5.547000000
O    -2.269000000    -7.452000000     1.879000000
H    -3.092000000    -7.512000000     1.393000000
H    -2.146000000    -6.515000000     2.027000000
O     3.172000000     4.016000000     0.505000000
H     3.257000000     3.092000000     0.741000000
H     2.822000000     4.004000000    -0.386000000
O    -3.004000000     3.585000000     5.244000000
H    -2.135000000     3.984000000     5.287000000
H    -3.180000000     3.300000000     6.141000000
O     4.140000000    -1.719000000     0.529000000
H     5.088000000    -1.684000000     0.403000000
H     3.964000000    -2.628000000     0.774000000
O     0.217000000    -5.054000000     4.264000000
H    -0.405000000    -5.487000000     4.849000000
H    -0.267000000    -4.934000000     3.447000000
O     0.271000000     1.046000000    -4.583000000
H    -0.008000000     1.945000000    -4.757000000
H     1.085000000     1.140000000    -4.087000000
O     2.148000000     7.441000000    -2.326000000
H     3.017000000     7.417000000    -2.726000000
H     1.563000000     7.102000000    -3.004000000
O    -2.658000000    -0.506000000     1.383000000
H    -1.714000000    -0.660000000     1.342000000
H    -2.776000000     0.058000000     2.147000000
O     1.444000000    -8.704000000    -2.248000000
H     0.579000000    -8.410000000    -1.963000000
H     1.995000000    -8.617000000    -1.470000000
O    -0.462000000     4.696000000     4.912000000
H     0.392000000     4.305000000     5.098000000
H    -0.622000000     5.284000000     5.650000000
O    -5.046000000     4.623000000    -3.575000000
H    -5.934000000     4.427000000    -3.275000000
H    -4.496000000     3.973000000    -3.136000000
O    -5.117000000     0.041000000    -0.007000000
H    -4.222000000    -0.050000000     0.318000000
H    -5.666000000    -0.258000000     0.718000000
O     2.857000000     1.401000000     6.422000000
H     2.778000000     2.116000000     5.790000000
H     3.682000000     1.572000000     6.875000000
O    -0.641000000     6.671000000    -2.056000000
H    -0.489000000     7.045000000    -2.924000000
H    -0.579000000     5.725000000    -2.189000000
O    -1.603000000    -8.258000000    -1.179000000
H    -2.122000000    -7.515000000    -1.488000000
H    -2.016000000    -8.513000000    -0.354000000
O    -4.186000000     3.917000000     0.309000000
H    -4.259000000     3.753000000     1.249000000
H    -3.676000000     4.725000000     0.246000000
O    -3.953000000    -2.790000000     1.820000000
H    -4.864000000    -2.600000000     1.594000000
H    -3.468000000    -2.020000000     1.523000000
O     3.864000000     1.567000000     1.158000000
H     3.715000000     1.476000000     2.099000000
H     3.797000000     0.675000000     0.817000000
O    -0.786000000     0.048000000     5.722000000
H    -0.267000000     0.248000000     6.501000000
H    -0.189000000    -0.439000000     5.155000000
O     3.041000000    -5.534000000    -2.637000000
H     2.389000000    -4.988000000    -3.076000000
H     2.539000000    -6.039000000    -1.998000000
O    -2.533000000     1.095000000     3.693000000
H    -1.903000000     0.949000000     4.398000000
H    -3.165000000     1.713000000     4.060000000
O    -1.686000000     3.273000000    -4.414000000
H    -2.300000000     2.956000000    -3.751000000
H    -2.238000000     3.720000000    -5.056000000
O     3.657000000    -1.027000000    -4.135000000
H     4.601000000    -1.045000000    -3.978000000
H     3.347000000    -0.263000000    -3.648000000
