144
-2839.89345
O    -1.488000000     5.498000000     2.217000000
H    -1.414000000     4.545000000     2.268000000
H    -1.170000000     5.808000000     3.065000000
O    -3.680000000     3.468000000     3.599000000
H    -3.324000000     4.145000000     4.174000000
H    -3.629000000     2.664000000     4.116000000
O    -0.041000000     6.044000000     4.656000000
H     0.693000000     6.018000000     4.043000000
H     0.367000000     6.173000000     5.513000000
O    -4.031000000     2.866000000     1.047000000
H    -3.716000000     3.152000000     1.904000000
H    -4.845000000     3.354000000     0.916000000
O     0.614000000    -3.982000000    -4.924000000
H    -0.294000000    -3.779000000    -5.151000000
H     0.666000000    -3.826000000    -3.981000000
O     1.921000000    -6.089000000    -1.404000000
H     1.421000000    -5.274000000    -1.365000000
H     2.380000000    -6.048000000    -2.244000000
O    -3.190000000    -0.545000000    -0.637000000
H    -3.013000000    -1.270000000    -1.237000000
H    -2.333000000    -0.148000000    -0.483000000
O     3.405000000    -3.095000000     0.514000000
H     2.573000000    -3.088000000     0.040000000
H     3.478000000    -3.985000000     0.858000000
O    -0.066000000    -5.281000000     1.596000000
H     0.469000000    -4.686000000     1.072000000
H    -0.949000000    -4.914000000     1.551000000
O    -1.679000000    -4.923000000    -1.837000000
H    -1.522000000    -5.685000000    -2.395000000
H    -1.225000000    -5.128000000    -1.019000000
O     2.132000000     3.264000000    -2.349000000
H     2.512000000     2.797000000    -3.093000000
H     1.236000000     3.463000000    -2.624000000
O     2.702000000     2.809000000     0.579000000
H     1.933000000     3.343000000     0.774000000
H     2.997000000     3.116000000    -0.278000000
O    -3.686000000     6.232000000     0.842000000
H    -4.480000000     5.805000000     1.163000000
H    -3.009000000     5.984000000     1.472000000
O     1.136000000    -8.153000000     1.046000000
H     1.013000000    -8.504000000     0.164000000
H     1.264000000    -7.214000000     0.914000000
O    -2.672000000    -2.569000000    -2.369000000
H    -2.235000000    -3.412000000    -2.249000000
H    -3.532000000    -2.794000000    -2.724000000
O     4.653000000    -2.190000000    -2.083000000
H     4.129000000    -1.928000000    -1.325000000
H     4.747000000    -3.138000000    -1.993000000
O    -1.832000000    -1.387000000    -4.816000000
H    -2.005000000    -2.199000000    -5.292000000
H    -2.327000000    -1.476000000    -4.002000000
O    -3.161000000    -1.862000000     3.107000000
H    -2.356000000    -1.412000000     3.365000000
H    -3.540000000    -1.303000000     2.428000000
O    -0.809000000     1.080000000    -5.127000000
H    -1.244000000     1.367000000    -5.930000000
H    -1.111000000     0.181000000    -4.999000000
O    -4.070000000     1.549000000     5.387000000
H    -4.222000000     0.712000000     4.948000000
H    -4.132000000     1.346000000     6.320000000
O     4.333000000    -1.020000000     2.798000000
H     4.234000000    -1.748000000     2.185000000
H     4.263000000    -1.423000000     3.663000000
O     2.025000000     5.774000000     3.013000000
H     1.796000000     6.044000000     2.123000000
H     2.969000000     5.620000000     2.981000000
O    -0.399000000     2.913000000     4.631000000
H     0.503000000     3.115000000     4.380000000
H    -0.681000000     3.672000000     5.141000000
O     3.134000000     0.182000000    -0.476000000
H     2.787000000     0.828000000     0.140000000
H     2.361000000    -0.164000000    -0.921000000
O     0.837000000    -4.104000000     3.895000000
H     0.304000000    -4.677000000     3.343000000
H     1.367000000    -3.601000000     3.276000000
O     2.183000000    -0.923000000    -3.652000000
H     1.539000000    -1.433000000    -3.161000000
H     2.986000000    -1.442000000    -3.606000000
O    -1.314000000    -0.321000000     4.489000000
H    -1.576000000     0.594000000     4.386000000
H    -0.388000000    -0.279000000     4.726000000
O    -4.784000000     0.292000000     1.501000000
H    -4.352000000    -0.072000000     0.728000000
H    -4.618000000     1.233000000     1.446000000
O     3.797000000     1.723000000     2.708000000
H     3.586000000     2.142000000     1.874000000
H     4.265000000     0.924000000     2.463000000
O     2.314000000     3.432000000     6.824000000
H     1.807000000     4.242000000     6.869000000
H     2.472000000     3.299000000     5.890000000
O    -1.847000000    -3.989000000    -6.003000000
H    -2.557000000    -4.484000000    -5.596000000
H    -1.599000000    -4.509000000    -6.767000000
O     3.386000000    -5.878000000     0.894000000
H     4.093000000    -6.497000000     0.709000000
H     2.738000000    -6.042000000     0.209000000
O    -4.535000000     5.189000000    -1.591000000
H    -3.749000000     5.476000000    -2.056000000
H    -4.346000000     5.366000000    -0.670000000
O    -4.242000000    -4.891000000    -0.966000000
H    -3.403000000    -4.438000000    -0.886000000
H    -4.020000000    -5.742000000    -1.344000000
O    -0.340000000     4.024000000    -3.647000000
H    -0.520000000     3.117000000    -3.897000000
H     0.230000000     4.355000000    -4.341000000
O     2.237000000     3.226000000     3.977000000
H     2.899000000     2.868000000     3.386000000
H     2.073000000     4.109000000     3.646000000
O    -2.599000000    -4.285000000     1.594000000
H    -2.611000000    -5.052000000     2.167000000
H    -2.907000000    -3.568000000     2.147000000
O    -0.958000000     7.729000000    -0.565000000
H    -1.773000000     7.270000000    -0.364000000
H    -1.206000000     8.653000000    -0.604000000
O     1.150000000     5.855000000     0.054000000
H     0.965000000     5.385000000    -0.759000000
H     0.555000000     6.605000000     0.037000000
O     1.922000000     1.436000000    -4.580000000
H     1.031000000     1.371000000    -4.924000000
H     2.145000000     0.541000000    -4.324000000
O    -1.974000000    -2.544000000     6.319000000
H    -1.782000000    -1.824000000     5.719000000
H    -1.831000000    -2.174000000     7.191000000
O    -4.113000000     2.734000000    -4.810000000
H    -3.248000000     2.460000000    -5.115000000
H    -4.207000000     2.318000000    -3.953000000
O     0.202000000     1.080000000     7.080000000
H    -0.053000000     1.998000000     6.982000000
H     0.687000000     0.879000000     6.279000000
O     3.078000000    -3.241000000    -5.925000000
H     2.236000000    -3.058000000    -5.509000000
H     3.385000000    -4.042000000    -5.500000000
O     1.576000000     0.445000000     4.796000000
H     2.273000000    -0.191000000     4.959000000
H     1.961000000     1.069000000     4.181000000
O     1.400000000    -6.674000000    -5.558000000
H     2.349000000    -6.573000000    -5.635000000
H     1.091000000    -5.815000000    -5.271000000
O    -3.939000000     1.940000000    -2.102000000
H    -3.731000000     1.192000000    -1.542000000
H    -4.101000000     2.658000000    -1.491000000
O    -2.448000000     6.221000000    -3.853000000
H    -2.135000000     6.618000000    -4.666000000
H    -1.979000000     5.387000000    -3.798000000
