144
-2801.52363
O     3.533000000    -6.690000000    -1.819000000
H     2.599000000    -6.834000000    -1.666000000
H     3.967000000    -7.152000000    -1.102000000
O     4.019000000    -1.944000000    -0.264000000
H     3.399000000    -2.456000000     0.257000000
H     4.252000000    -2.519000000    -0.992000000
O     1.077000000    -1.800000000     5.588000000
H     0.160000000    -2.072000000     5.598000000
H     1.361000000    -1.879000000     6.499000000
O    -2.411000000     5.291000000     2.688000000
H    -1.459000000     5.385000000     2.722000000
H    -2.712000000     5.587000000     3.547000000
O    -4.033000000     3.935000000     1.009000000
H    -3.532000000     4.570000000     1.521000000
H    -3.914000000     3.106000000     1.473000000
O    -5.339000000    -1.125000000    -0.508000000
H    -4.563000000    -1.640000000    -0.288000000
H    -5.308000000    -0.377000000     0.090000000
O    -2.420000000    -5.019000000    -5.199000000
H    -2.536000000    -5.968000000    -5.242000000
H    -2.799000000    -4.770000000    -4.355000000
O     4.316000000    -3.602000000    -2.249000000
H     4.020000000    -4.424000000    -1.859000000
H     5.202000000    -3.788000000    -2.558000000
O     0.294000000    -4.222000000    -3.887000000
H    -0.057000000    -3.702000000    -3.164000000
H    -0.452000000    -4.356000000    -4.471000000
O    -4.218000000    -3.959000000    -3.229000000
H    -4.917000000    -4.612000000    -3.180000000
H    -3.903000000    -3.878000000    -2.329000000
O     0.500000000    -5.875000000    -1.621000000
H     0.472000000    -5.064000000    -1.114000000
H     0.422000000    -5.591000000    -2.532000000
O    -2.615000000    -0.246000000     0.369000000
H    -2.841000000    -1.174000000     0.437000000
H    -1.658000000    -0.233000000     0.354000000
O     2.317000000    -3.736000000     1.619000000
H     1.600000000    -3.862000000     0.997000000
H     2.935000000    -4.438000000     1.417000000
O    -2.589000000    -7.144000000    -2.295000000
H    -2.647000000    -7.491000000    -3.185000000
H    -1.838000000    -7.594000000    -1.910000000
O    -1.630000000    -4.461000000     2.066000000
H    -1.051000000    -4.024000000     1.441000000
H    -1.671000000    -3.864000000     2.813000000
O    -2.881000000    -5.005000000    -0.708000000
H    -2.862000000    -5.852000000    -1.153000000
H    -2.020000000    -4.623000000    -0.883000000
O     2.472000000     3.548000000    -2.474000000
H     1.567000000     3.470000000    -2.775000000
H     2.758000000     4.404000000    -2.793000000
O    -0.908000000    -3.286000000    -6.949000000
H    -1.464000000    -3.734000000    -6.311000000
H    -0.193000000    -3.901000000    -7.117000000
O     3.430000000     4.696000000     1.627000000
H     4.278000000     4.911000000     1.238000000
H     2.872000000     5.443000000     1.413000000
O     0.120000000    -6.521000000     1.387000000
H     0.559000000    -5.890000000     0.818000000
H    -0.559000000    -6.012000000     1.831000000
O    -2.413000000    -1.886000000    -3.526000000
H    -1.851000000    -2.356000000    -2.910000000
H    -3.223000000    -2.397000000    -3.548000000
O     3.888000000    -1.603000000    -4.216000000
H     4.220000000    -0.992000000    -3.559000000
H     3.760000000    -2.422000000    -3.739000000
O    -1.867000000     0.675000000    -3.912000000
H    -2.077000000    -0.234000000    -4.123000000
H    -2.310000000     0.836000000    -3.079000000
O     0.017000000     2.787000000    -4.228000000
H     0.785000000     2.217000000    -4.275000000
H    -0.723000000     2.186000000    -4.144000000
O     3.045000000    -1.681000000     3.618000000
H     2.660000000    -2.285000000     2.983000000
H     2.357000000    -1.548000000     4.269000000
O     1.943000000     2.372000000     6.607000000
H     2.197000000     2.560000000     5.704000000
H     1.682000000     3.220000000     6.964000000
O     3.894000000     2.449000000    -0.442000000
H     3.275000000     2.860000000    -1.045000000
H     3.649000000     2.787000000     0.419000000
O     0.473000000    -5.146000000     4.479000000
H    -0.141000000    -4.451000000     4.716000000
H     1.026000000    -4.757000000     3.802000000
O     1.014000000    -1.132000000    -5.893000000
H     0.744000000    -1.998000000    -6.198000000
H     1.501000000    -1.304000000    -5.086000000
O     4.746000000     0.149000000    -1.767000000
H     4.335000000    -0.561000000    -1.274000000
H     4.465000000     0.946000000    -1.318000000
O     5.208000000    -0.684000000     1.931000000
H     4.677000000    -1.162000000     2.569000000
H     4.668000000    -0.658000000     1.142000000
O    -2.805000000     0.796000000     4.570000000
H    -2.912000000     1.732000000     4.735000000
H    -1.866000000     0.640000000     4.670000000
O    -3.687000000     1.358000000     2.117000000
H    -3.290000000     0.718000000     1.526000000
H    -3.440000000     1.061000000     2.993000000
O     3.364000000     1.568000000     4.301000000
H     2.980000000     0.772000000     3.934000000
H     4.303000000     1.475000000     4.145000000
O     0.447000000     5.249000000     5.887000000
H     1.012000000     5.666000000     6.537000000
H     1.052000000     4.803000000     5.294000000
O    -2.718000000    -1.270000000    -6.249000000
H    -2.731000000    -1.582000000    -5.345000000
H    -2.146000000    -1.886000000    -6.707000000
O    -4.447000000     5.981000000    -1.162000000
H    -4.199000000     6.798000000    -0.730000000
H    -4.252000000     5.301000000    -0.518000000
O    -3.428000000    -2.827000000     0.754000000
H    -3.466000000    -3.002000000     1.694000000
H    -3.347000000    -3.693000000     0.353000000
O    -0.670000000     5.265000000    -5.362000000
H    -0.194000000     4.511000000    -5.016000000
H    -0.506000000     5.240000000    -6.305000000
O     1.969000000     3.881000000     3.860000000
H     2.649000000     3.208000000     3.896000000
H     2.158000000     4.370000000     3.060000000
O     1.622000000     6.450000000     1.389000000
H     1.858000000     6.962000000     0.615000000
H     0.728000000     6.725000000     1.594000000
O    -0.552000000    -8.397000000    -1.226000000
H    -0.055000000    -8.763000000    -1.958000000
H    -0.102000000    -7.578000000    -1.017000000
O     3.037000000     2.373000000    -5.636000000
H     3.248000000     2.276000000    -4.708000000
H     3.471000000     1.632000000    -6.060000000
O    -1.482000000    -3.159000000     5.091000000
H    -2.252000000    -2.597000000     5.010000000
H    -1.529000000    -3.501000000     5.984000000
O    -3.088000000     3.919000000    -4.511000000
H    -3.178000000     3.006000000    -4.786000000
H    -2.196000000     3.979000000    -4.170000000
O     2.096000000    -4.010000000    -6.098000000
H     1.471000000    -4.169000000    -5.391000000
H     2.806000000    -4.632000000    -5.934000000
O    -0.261000000     0.628000000     6.339000000
H     0.123000000    -0.241000000     6.219000000
H     0.474000000     1.180000000     6.606000000
O    -3.745000000     1.758000000    -1.570000000
H    -3.625000000     0.968000000    -1.043000000
H    -3.811000000     2.466000000    -0.929000000
