144
-2812.68060
O     3.127000000     1.902000000    -3.274000000
H     2.488000000     2.465000000    -3.711000000
H     3.963000000     2.353000000    -3.391000000
O     4.581000000    -0.727000000     0.513000000
H     4.092000000     0.000000000     0.897000000
H     4.293000000    -1.496000000     1.005000000
O     2.731000000     7.382000000     0.246000000
H     1.863000000     7.390000000     0.650000000
H     2.776000000     6.541000000    -0.209000000
O     1.684000000     4.725000000    -0.196000000
H     1.039000000     4.228000000    -0.699000000
H     1.170000000     5.391000000     0.260000000
O    -0.801000000     7.645000000    -4.277000000
H    -0.710000000     6.707000000    -4.109000000
H    -1.101000000     8.010000000    -3.445000000
O     2.088000000     8.262000000    -2.716000000
H     2.497000000     7.446000000    -3.006000000
H     1.304000000     7.981000000    -2.244000000
O    -0.972000000     3.182000000     2.482000000
H    -1.161000000     2.278000000     2.733000000
H    -0.985000000     3.667000000     3.307000000
O     6.275000000    -4.088000000     0.541000000
H     5.925000000    -4.514000000    -0.241000000
H     5.548000000    -4.096000000     1.164000000
O    -0.373000000    -5.515000000    -3.301000000
H    -0.007000000    -4.693000000    -2.974000000
H     0.392000000    -6.058000000    -3.491000000
O     2.412000000    -4.063000000    -0.355000000
H     1.746000000    -3.434000000    -0.633000000
H     3.052000000    -4.065000000    -1.066000000
O     3.888000000    -4.026000000     1.841000000
H     3.186000000    -4.277000000     1.241000000
H     3.646000000    -4.429000000     2.675000000
O     0.507000000     1.815000000    -6.929000000
H     0.078000000     2.439000000    -7.515000000
H     1.158000000     1.379000000    -7.478000000
O    -3.717000000    -4.174000000    -2.376000000
H    -2.978000000    -4.264000000    -1.773000000
H    -3.718000000    -4.991000000    -2.876000000
O     3.976000000    -2.128000000     4.257000000
H     3.255000000    -2.757000000     4.265000000
H     3.681000000    -1.431000000     3.671000000
O    -0.456000000     4.989000000    -3.677000000
H     0.298000000     4.550000000    -4.069000000
H    -0.714000000     4.421000000    -2.951000000
O    -2.340000000     6.938000000     0.748000000
H    -2.746000000     7.521000000     0.107000000
H    -2.467000000     6.060000000     0.388000000
O    -0.121000000     1.109000000     5.009000000
H    -0.297000000     1.700000000     5.741000000
H     0.815000000     1.213000000     4.837000000
O    -3.217000000    -1.482000000    -3.249000000
H    -3.874000000    -0.787000000    -3.219000000
H    -3.599000000    -2.195000000    -2.737000000
O    -0.912000000    -1.287000000     5.826000000
H    -0.778000000    -0.342000000     5.759000000
H    -0.114000000    -1.612000000     6.244000000
O    -2.783000000    -3.252000000     1.186000000
H    -2.737000000    -3.234000000     2.141000000
H    -2.625000000    -4.168000000     0.956000000
O    -5.477000000     4.858000000    -0.968000000
H    -5.962000000     4.038000000    -1.057000000
H    -4.617000000     4.594000000    -0.641000000
O     2.610000000     5.668000000    -4.345000000
H     2.033000000     6.227000000    -4.865000000
H     2.142000000     4.835000000    -4.280000000
O     4.079000000    -0.627000000    -2.479000000
H     4.299000000    -0.899000000    -1.588000000
H     3.747000000     0.265000000    -2.382000000
O     4.418000000     4.007000000     0.370000000
H     4.246000000     3.302000000     0.994000000
H     3.550000000     4.282000000     0.074000000
O    -0.024000000    -0.899000000    -5.968000000
H    -0.134000000    -0.003000000    -6.289000000
H    -0.904000000    -1.274000000    -5.998000000
O    -5.658000000     1.772000000    -0.525000000
H    -5.060000000     1.885000000    -1.264000000
H    -5.293000000     1.036000000    -0.033000000
O    -2.394000000     0.930000000    -5.441000000
H    -2.596000000     1.805000000    -5.112000000
H    -1.693000000     0.615000000    -4.870000000
O     4.235000000     5.189000000     2.877000000
H     3.371000000     4.902000000     3.175000000
H     4.338000000     4.784000000     2.016000000
O     1.767000000     3.656000000     3.991000000
H     1.013000000     4.123000000     3.632000000
H     1.682000000     3.757000000     4.939000000
O    -2.813000000    -0.244000000    -7.757000000
H    -2.598000000     0.182000000    -6.927000000
H    -3.729000000    -0.014000000    -7.914000000
O    -5.519000000     0.213000000    -3.784000000
H    -5.367000000    -0.017000000    -4.700000000
H    -4.782000000     0.779000000    -3.554000000
O    -2.538000000    -5.989000000     0.420000000
H    -2.188000000    -6.808000000     0.771000000
H    -2.698000000    -6.173000000    -0.505000000
O    -1.553000000    -4.948000000     4.527000000
H    -2.087000000    -4.402000000     3.951000000
H    -0.818000000    -4.387000000     4.775000000
O    -0.440000000     8.084000000    -1.423000000
H    -0.310000000     8.468000000    -0.556000000
H    -0.978000000     8.724000000    -1.890000000
O    -3.374000000    -0.582000000     0.303000000
H    -3.226000000    -1.501000000     0.525000000
H    -2.918000000    -0.460000000    -0.530000000
O     0.459000000     6.745000000     1.645000000
H     0.629000000     6.857000000     2.581000000
H    -0.495000000     6.699000000     1.578000000
O     0.798000000    -5.586000000     1.992000000
H     1.156000000    -5.404000000     1.123000000
H     0.352000000    -6.427000000     1.897000000
O     1.117000000    -3.237000000    -3.028000000
H     0.866000000    -2.392000000    -3.401000000
H     2.037000000    -3.342000000    -3.271000000
O    -3.177000000     0.616000000     2.705000000
H    -2.753000000    -0.105000000     3.170000000
H    -3.139000000     0.361000000     1.783000000
O     1.081000000     3.135000000    -4.638000000
H     1.027000000     2.837000000    -5.546000000
H     0.369000000     2.677000000    -4.193000000
O    -2.574000000     4.151000000     0.262000000
H    -1.887000000     4.133000000    -0.405000000
H    -2.130000000     3.894000000     1.070000000
O     3.404000000     1.921000000     2.219000000
H     3.824000000     2.021000000     3.073000000
H     2.483000000     2.127000000     2.380000000
O     2.276000000    -4.626000000     4.252000000
H     2.481000000    -5.455000000     4.684000000
H     1.604000000    -4.851000000     3.608000000
O    -5.975000000    -1.587000000    -0.361000000
H    -5.127000000    -1.144000000    -0.378000000
H    -5.773000000    -2.499000000    -0.571000000
O    -2.093000000    -2.418000000    -5.587000000
H    -2.373000000    -2.304000000    -4.679000000
H    -2.800000000    -2.036000000    -6.106000000
O    -2.278000000     3.827000000    -5.504000000
H    -1.345000000     3.988000000    -5.644000000
H    -2.528000000     4.447000000    -4.819000000
O    -2.531000000    -2.314000000     3.893000000
H    -1.892000000    -1.914000000     4.482000000
H    -3.374000000    -2.180000000     4.326000000
O    -3.796000000     2.081000000    -2.712000000
H    -2.847000000     2.196000000    -2.758000000
H    -4.153000000     2.905000000    -3.043000000
