144
-2842.92487
O     3.499000000     1.781000000    -3.571000000
H     3.463000000     0.962000000    -3.076000000
H     4.433000000     1.933000000    -3.715000000
O     2.841000000    -0.442000000    -1.470000000
H     1.945000000    -0.147000000    -1.306000000
H     2.833000000    -1.371000000    -1.239000000
O     1.082000000     1.068000000     7.716000000
H     2.002000000     1.321000000     7.798000000
H     0.955000000     0.928000000     6.778000000
O     3.222000000     4.704000000     0.419000000
H     3.020000000     4.380000000    -0.459000000
H     3.235000000     3.919000000     0.967000000
O     1.807000000     3.450000000     4.822000000
H     1.181000000     4.162000000     4.690000000
H     2.373000000     3.757000000     5.530000000
O    -1.077000000    -6.997000000     3.781000000
H    -1.206000000    -7.651000000     4.468000000
H    -0.884000000    -6.187000000     4.254000000
O    -2.021000000     4.478000000    -1.364000000
H    -1.482000000     3.801000000    -1.772000000
H    -1.478000000     4.820000000    -0.653000000
O    -0.325000000     4.949000000     4.656000000
H    -1.273000000     4.999000000     4.534000000
H    -0.122000000     5.669000000     5.253000000
O    -3.198000000     2.051000000     2.460000000
H    -2.643000000     1.669000000     1.781000000
H    -2.673000000     1.997000000     3.258000000
O     1.151000000     0.827000000     4.954000000
H     1.323000000     1.767000000     5.010000000
H     1.795000000     0.504000000     4.324000000
O    -1.827000000    -3.406000000    -4.918000000
H    -1.555000000    -2.504000000    -5.088000000
H    -1.917000000    -3.797000000    -5.787000000
O     1.242000000     0.694000000    -7.803000000
H     0.389000000     1.102000000    -7.948000000
H     1.624000000     1.188000000    -7.077000000
O    -2.665000000     6.156000000     1.649000000
H    -1.821000000     5.895000000     1.280000000
H    -3.313000000     5.750000000     1.074000000
O     1.321000000    -4.454000000     2.656000000
H     1.755000000    -3.672000000     2.996000000
H     1.254000000    -5.039000000     3.411000000
O     0.889000000     6.403000000    -1.579000000
H     0.843000000     6.838000000    -2.430000000
H     1.550000000     5.720000000    -1.695000000
O    -1.056000000     2.068000000     4.717000000
H    -0.582000000     2.898000000     4.655000000
H    -0.427000000     1.463000000     5.110000000
O    -1.249000000    -4.069000000    -2.271000000
H    -2.068000000    -3.679000000    -1.966000000
H    -1.134000000    -3.723000000    -3.157000000
O     2.675000000    -3.138000000    -0.915000000
H     1.840000000    -3.561000000    -0.715000000
H     2.828000000    -3.333000000    -1.839000000
O     1.745000000    -1.542000000    -6.511000000
H     1.631000000    -0.737000000    -7.018000000
H     2.276000000    -2.105000000    -7.074000000
O     2.810000000    -5.886000000     0.595000000
H     2.535000000    -5.425000000     1.388000000
H     2.009000000    -5.972000000     0.079000000
O    -1.372000000     4.338000000    -5.129000000
H    -1.208000000     3.463000000    -4.777000000
H    -2.315000000     4.465000000    -5.024000000
O    -3.448000000    -1.749000000     2.282000000
H    -4.040000000    -1.992000000     2.994000000
H    -2.922000000    -2.534000000     2.130000000
O    -2.032000000     0.998000000    -6.988000000
H    -2.500000000     0.920000000    -7.819000000
H    -1.768000000     0.103000000    -6.776000000
O    -1.262000000    -4.394000000     4.947000000
H    -1.679000000    -3.556000000     5.146000000
H    -0.338000000    -4.258000000     5.157000000
O     3.689000000    -2.903000000     3.581000000
H     4.012000000    -2.976000000     2.683000000
H     3.736000000    -3.795000000     3.926000000
O    -2.272000000    -4.058000000     2.235000000
H    -1.833000000    -4.376000000     3.024000000
H    -1.804000000    -4.480000000     1.514000000
O     4.785000000     0.973000000    -0.113000000
H     4.199000000     1.504000000     0.425000000
H     4.204000000     0.518000000    -0.723000000
O     3.967000000    -2.448000000     6.892000000
H     4.769000000    -2.353000000     6.378000000
H     3.287000000    -2.045000000     6.352000000
O     1.409000000    -4.836000000     5.327000000
H     2.351000000    -4.800000000     5.162000000
H     1.316000000    -5.465000000     6.043000000
O     3.086000000     2.480000000     2.206000000
H     3.074000000     1.563000000     2.480000000
H     2.545000000     2.931000000     2.853000000
O    -0.666000000    -0.949000000    -5.262000000
H    -0.672000000    -0.171000000    -4.704000000
H     0.259000000    -1.101000000    -5.451000000
O    -3.420000000    -2.633000000    -1.677000000
H    -4.353000000    -2.845000000    -1.687000000
H    -3.383000000    -1.704000000    -1.903000000
O    -0.186000000     5.203000000     0.687000000
H     0.537000000     4.673000000     1.024000000
H     0.233000000     5.834000000     0.101000000
O    -1.956000000    -1.349000000     5.003000000
H    -1.835000000    -0.401000000     4.956000000
H    -2.708000000    -1.467000000     5.583000000
O     2.307000000     3.967000000    -1.996000000
H     1.443000000     3.639000000    -2.247000000
H     2.920000000     3.457000000    -2.526000000
O     0.907000000    -5.371000000    -5.039000000
H     0.577000000    -6.106000000    -5.556000000
H     0.120000000    -4.946000000    -4.697000000
O    -2.452000000     6.952000000    -2.730000000
H    -2.712000000     6.993000000    -3.650000000
H    -2.148000000     6.053000000    -2.606000000
O     0.493000000    -5.531000000    -0.677000000
H    -0.245000000    -5.132000000    -1.138000000
H     0.087000000    -6.104000000    -0.027000000
O     4.698000000    -3.612000000     0.872000000
H     4.418000000    -2.882000000     0.321000000
H     4.185000000    -4.358000000     0.561000000
O    -2.944000000    -0.104000000     0.169000000
H    -3.416000000    -0.730000000     0.717000000
H    -2.225000000    -0.611000000    -0.209000000
O     2.868000000    -2.897000000    -3.515000000
H     2.219000000    -2.342000000    -3.948000000
H     3.708000000    -2.487000000    -3.721000000
O    -4.384000000     5.326000000    -0.353000000
H    -5.164000000     4.878000000    -0.679000000
H    -3.662000000     4.947000000    -0.855000000
O     1.590000000     2.058000000    -5.453000000
H     2.388000000     2.068000000    -4.924000000
H     0.920000000     1.704000000    -4.869000000
O    -3.979000000     2.297000000    -0.993000000
H    -3.536000000     1.519000000    -0.656000000
H    -3.530000000     3.030000000    -0.573000000
O     3.821000000     0.073000000     3.352000000
H     4.286000000     0.353000000     4.140000000
H     3.835000000    -0.883000000     3.392000000
O     1.570000000     5.000000000    -5.640000000
H     1.903000000     4.116000000    -5.797000000
H     0.629000000     4.880000000    -5.508000000
O    -4.983000000    -4.486000000     1.590000000
H    -4.939000000    -5.341000000     1.161000000
H    -4.097000000    -4.338000000     1.920000000
O    -3.388000000     1.046000000    -4.018000000
H    -2.437000000     0.941000000    -3.983000000
H    -3.550000000     1.487000000    -4.852000000
