144
-2827.62022
O     2.565000000     3.251000000    -3.761000000
H     1.742000000     3.068000000    -3.308000000
H     3.133000000     3.622000000    -3.086000000
O     2.797000000     0.536000000    -0.762000000
H     1.878000000     0.547000000    -0.492000000
H     2.919000000    -0.326000000    -1.159000000
O     3.696000000     5.852000000     0.983000000
H     3.323000000     5.781000000     0.104000000
H     3.953000000     4.957000000     1.207000000
O     2.371000000     4.225000000     3.837000000
H     1.908000000     4.650000000     4.559000000
H     3.225000000     4.657000000     3.813000000
O     6.327000000    -2.668000000     2.152000000
H     5.532000000    -2.825000000     1.642000000
H     7.042000000    -2.836000000     1.539000000
O     0.147000000     5.104000000    -0.140000000
H     0.143000000     4.411000000    -0.801000000
H     0.898000000     5.651000000    -0.371000000
O    -2.633000000     2.681000000     2.382000000
H    -2.671000000     1.729000000     2.288000000
H    -1.748000000     2.855000000     2.701000000
O     1.184000000     1.137000000     5.777000000
H     1.522000000     1.388000000     6.637000000
H     1.966000000     0.995000000     5.244000000
O    -0.221000000     2.568000000    -8.232000000
H    -1.082000000     2.971000000    -8.340000000
H    -0.031000000     2.656000000    -7.298000000
O     3.442000000    -3.941000000     4.251000000
H     2.587000000    -3.743000000     4.633000000
H     3.610000000    -4.850000000     4.497000000
O     0.880000000     6.203000000    -4.172000000
H     0.479000000     6.818000000    -4.786000000
H     0.145000000     5.691000000    -3.832000000
O    -0.343000000     2.801000000     4.209000000
H     0.402000000     3.319000000     3.905000000
H     0.051000000     2.015000000     4.589000000
O    -0.917000000    -6.676000000     2.584000000
H    -0.985000000    -7.376000000     3.232000000
H    -1.538000000    -6.922000000     1.898000000
O     1.160000000    -4.514000000    -1.914000000
H     0.535000000    -4.285000000    -2.601000000
H     2.015000000    -4.290000000    -2.283000000
O     2.650000000    -2.146000000    -1.261000000
H     3.131000000    -2.285000000    -0.446000000
H     1.875000000    -2.702000000    -1.180000000
O    -4.176000000    -2.499000000    -1.709000000
H    -4.242000000    -1.551000000    -1.593000000
H    -4.944000000    -2.730000000    -2.232000000
O     3.783000000    -3.238000000     1.138000000
H     3.771000000    -3.255000000     2.095000000
H     3.369000000    -4.062000000     0.879000000
O    -1.333000000     5.066000000    -3.372000000
H    -0.970000000     4.398000000    -2.791000000
H    -1.799000000     4.571000000    -4.046000000
O    -2.401000000     0.175000000     3.127000000
H    -2.659000000    -0.667000000     2.753000000
H    -1.960000000    -0.051000000     3.946000000
O     3.496000000     1.782000000    -5.940000000
H     3.208000000     2.355000000    -5.230000000
H     4.049000000     1.129000000    -5.512000000
O    -3.323000000     1.220000000    -6.086000000
H    -3.434000000     0.925000000    -6.990000000
H    -3.107000000     0.425000000    -5.599000000
O    -0.975000000    -3.232000000     5.368000000
H    -0.990000000    -2.277000000     5.302000000
H    -0.098000000    -3.436000000     5.691000000
O    -4.609000000     3.971000000    -2.306000000
H    -4.097000000     3.609000000    -3.029000000
H    -4.177000000     3.642000000    -1.517000000
O     4.742000000     4.315000000    -2.134000000
H     5.606000000     3.916000000    -2.235000000
H     4.337000000     3.832000000    -1.414000000
O     5.022000000    -1.733000000     4.754000000
H     4.312000000    -2.370000000     4.681000000
H     5.596000000    -1.928000000     4.013000000
O    -2.731000000    -4.238000000     3.370000000
H    -2.174000000    -3.743000000     3.971000000
H    -2.151000000    -4.902000000     2.998000000
O     2.906000000     3.120000000    -0.561000000
H     2.776000000     3.046000000     0.385000000
H     2.634000000     2.270000000    -0.907000000
O     1.420000000    -3.393000000     6.446000000
H     2.091000000    -2.988000000     6.996000000
H     1.053000000    -4.089000000     6.990000000
O     2.988000000     2.312000000     1.974000000
H     3.105000000     1.519000000     2.497000000
H     2.523000000     2.915000000     2.555000000
O    -0.152000000    -0.561000000    -4.736000000
H    -0.455000000     0.292000000    -4.425000000
H     0.452000000    -0.355000000    -5.450000000
O    -0.358000000    -3.340000000    -4.213000000
H    -0.351000000    -2.411000000    -4.444000000
H     0.165000000    -3.760000000    -4.896000000
O    -3.937000000    -2.634000000    -4.859000000
H    -3.244000000    -2.858000000    -5.480000000
H    -3.479000000    -2.478000000    -4.033000000
O     5.426000000     3.482000000     1.034000000
H     5.932000000     2.828000000     1.516000000
H     4.553000000     3.098000000     0.954000000
O    -1.296000000    -0.384000000     5.363000000
H    -0.499000000    -0.017000000     5.746000000
H    -1.832000000    -0.630000000     6.117000000
O     2.135000000     6.189000000    -1.466000000
H     2.289000000     5.245000000    -1.492000000
H     1.581000000     6.363000000    -2.227000000
O    -2.553000000    -4.795000000    -0.872000000
H    -3.046000000    -4.068000000    -1.254000000
H    -1.829000000    -4.375000000    -0.408000000
O    -4.599000000     0.142000000    -3.351000000
H    -5.441000000     0.526000000    -3.107000000
H    -3.951000000     0.795000000    -3.086000000
O    -1.974000000     7.546000000    -2.001000000
H    -2.007000000     8.068000000    -2.802000000
H    -1.597000000     6.710000000    -2.276000000
O     2.872000000    -5.870000000     0.123000000
H     2.478000000    -5.593000000    -0.705000000
H     2.752000000    -6.820000000     0.138000000
O     5.021000000     0.168000000     1.653000000
H     4.225000000     0.007000000     1.148000000
H     4.997000000     1.105000000     1.846000000
O    -3.259000000     0.082000000    -0.101000000
H    -2.331000000     0.067000000    -0.334000000
H    -3.399000000    -0.734000000     0.381000000
O    -1.944000000     6.766000000     1.034000000
H    -2.119000000     7.018000000     0.127000000
H    -1.402000000     5.980000000     0.964000000
O     0.137000000     3.223000000    -5.478000000
H     0.996000000     3.319000000    -5.068000000
H    -0.372000000     2.709000000    -4.852000000
O    -3.081000000     2.910000000    -0.293000000
H    -3.032000000     3.002000000     0.659000000
H    -2.866000000     1.992000000    -0.457000000
O     3.439000000     0.740000000     4.047000000
H     4.029000000     1.211000000     4.636000000
H     3.645000000    -0.184000000     4.191000000
O     1.937000000    -6.529000000     2.772000000
H     2.191000000    -6.300000000     1.878000000
H     0.983000000    -6.595000000     2.740000000
O    -3.428000000    -2.263000000     1.726000000
H    -4.221000000    -1.798000000     1.992000000
H    -3.313000000    -2.941000000     2.393000000
O    -3.048000000     3.086000000    -4.324000000
H    -2.366000000     2.744000000    -3.746000000
H    -3.087000000     2.460000000    -5.046000000
