144
-2809.02136
O     1.945000000     2.157000000    -5.563000000
H     2.321000000     3.036000000    -5.604000000
H     2.699000000     1.579000000    -5.444000000
O     2.354000000     0.692000000    -1.924000000
H     1.675000000     0.166000000    -1.501000000
H     2.317000000     0.435000000    -2.845000000
O     2.308000000     2.102000000     5.749000000
H     2.869000000     1.767000000     5.049000000
H     2.468000000     3.045000000     5.753000000
O     2.258000000     5.736000000    -2.919000000
H     1.938000000     4.884000000    -2.620000000
H     2.330000000     5.644000000    -3.869000000
O    -2.790000000     6.681000000    -2.351000000
H    -2.695000000     5.741000000    -2.197000000
H    -1.955000000     6.946000000    -2.737000000
O     0.175000000    -1.428000000     7.400000000
H    -0.015000000    -0.603000000     6.955000000
H     1.124000000    -1.531000000     7.319000000
O    -2.069000000     1.914000000     3.403000000
H    -1.372000000     1.583000000     3.969000000
H    -1.615000000     2.454000000     2.755000000
O    -0.451000000     3.873000000     2.453000000
H     0.181000000     4.186000000     1.806000000
H    -1.049000000     4.609000000     2.580000000
O    -4.422000000     3.244000000    -7.053000000
H    -4.639000000     4.148000000    -7.284000000
H    -3.924000000     3.319000000    -6.238000000
O     2.772000000     4.716000000     5.148000000
H     2.588000000     5.553000000     5.573000000
H     2.407000000     4.809000000     4.268000000
O     0.138000000    -4.426000000     2.348000000
H    -0.283000000    -3.575000000     2.473000000
H    -0.255000000    -4.988000000     3.016000000
O    -1.581000000    -1.424000000     5.230000000
H    -1.276000000    -2.225000000     5.656000000
H    -0.817000000    -0.847000000     5.230000000
O    -5.131000000    -3.322000000    -0.839000000
H    -4.457000000    -2.660000000    -0.684000000
H    -5.951000000    -2.890000000    -0.599000000
O    -0.689000000     3.503000000    -6.766000000
H     0.007000000     2.974000000    -6.377000000
H    -1.377000000     3.519000000    -6.100000000
O     1.613000000    -1.637000000    -3.549000000
H     1.315000000    -2.533000000    -3.706000000
H     2.328000000    -1.510000000    -4.173000000
O    -0.567000000    -1.341000000    -7.074000000
H     0.322000000    -1.435000000    -7.416000000
H    -0.578000000    -0.472000000    -6.673000000
O    -6.083000000     0.297000000    -3.046000000
H    -5.252000000    -0.176000000    -3.093000000
H    -6.672000000    -0.198000000    -3.616000000
O     4.912000000    -0.951000000     0.825000000
H     5.548000000    -0.376000000     0.399000000
H     4.683000000    -1.595000000     0.155000000
O    -4.712000000     1.432000000     3.666000000
H    -3.757000000     1.483000000     3.634000000
H    -4.983000000     1.441000000     2.748000000
O     2.677000000    -4.816000000     1.667000000
H     1.752000000    -4.583000000     1.752000000
H     2.669000000    -5.721000000     1.355000000
O    -2.839000000     3.228000000    -4.873000000
H    -2.730000000     2.458000000    -4.314000000
H    -2.466000000     3.948000000    -4.365000000
O    -3.664000000    -1.472000000     0.420000000
H    -3.050000000    -1.790000000     1.082000000
H    -3.113000000    -1.025000000    -0.222000000
O    -0.238000000     0.841000000     6.003000000
H    -0.746000000     1.543000000     6.409000000
H     0.650000000     1.193000000     5.941000000
O    -0.625000000    -4.188000000     5.981000000
H    -0.368000000    -4.881000000     5.373000000
H     0.142000000    -4.063000000     6.540000000
O     4.438000000    -0.441000000     5.076000000
H     3.887000000    -0.887000000     4.433000000
H     5.258000000    -0.271000000     4.613000000
O     6.286000000    -3.649000000     4.159000000
H     6.141000000    -4.545000000     4.464000000
H     5.448000000    -3.388000000     3.777000000
O     4.269000000    -2.917000000     2.679000000
H     3.648000000    -3.468000000     2.201000000
H     4.301000000    -2.102000000     2.177000000
O    -0.877000000    -5.567000000    -0.116000000
H    -0.417000000    -5.072000000     0.562000000
H    -1.699000000    -5.832000000     0.296000000
O    -2.165000000    -3.024000000     2.959000000
H    -2.856000000    -3.641000000     3.199000000
H    -2.052000000    -2.477000000     3.737000000
O     2.292000000    -3.619000000     4.865000000
H     2.125000000    -3.664000000     3.923000000
H     2.986000000    -4.261000000     5.016000000
O     4.060000000     4.363000000    -0.777000000
H     4.220000000     3.419000000    -0.814000000
H     3.120000000     4.453000000    -0.933000000
O    -3.365000000     0.507000000    -6.214000000
H    -3.458000000     1.411000000    -6.514000000
H    -2.518000000     0.488000000    -5.768000000
O    -5.361000000     2.864000000    -2.582000000
H    -5.727000000     2.027000000    -2.869000000
H    -5.655000000     2.955000000    -1.675000000
O    -4.222000000    -1.349000000     4.798000000
H    -3.286000000    -1.156000000     4.750000000
H    -4.632000000    -0.694000000     4.233000000
O     1.563000000     3.383000000    -1.772000000
H     0.648000000     3.189000000    -1.975000000
H     1.984000000     2.525000000    -1.723000000
O    -3.548000000    -4.616000000    -2.909000000
H    -3.907000000    -4.755000000    -3.785000000
H    -4.302000000    -4.695000000    -2.326000000
O    -1.888000000    -3.127000000    -5.405000000
H    -1.078000000    -3.451000000    -5.011000000
H    -1.620000000    -2.359000000    -5.908000000
O     0.515000000    -4.568000000    -4.387000000
H     0.994000000    -5.385000000    -4.526000000
H    -0.123000000    -4.777000000    -3.704000000
O    -0.759000000     7.542000000    -4.129000000
H    -0.756000000     6.585000000    -4.141000000
H    -0.367000000     7.794000000    -4.965000000
O    -1.165000000    -5.938000000    -2.895000000
H    -2.040000000    -5.562000000    -2.987000000
H    -0.942000000    -5.804000000    -1.973000000
O     3.589000000    -2.523000000    -1.093000000
H     2.951000000    -2.279000000    -1.763000000
H     3.532000000    -3.477000000    -1.042000000
O    -3.729000000     1.574000000     0.019000000
H    -3.162000000     0.907000000     0.408000000
H    -4.350000000     1.079000000    -0.515000000
O    -3.390000000     4.832000000     1.041000000
H    -3.260000000     3.915000000     1.283000000
H    -3.425000000     4.825000000     0.084000000
O    -0.271000000     0.901000000    -5.728000000
H     0.555000000     1.380000000    -5.790000000
H    -0.551000000     1.022000000    -4.820000000
O    -3.078000000     3.908000000    -1.939000000
H    -3.859000000     3.536000000    -2.349000000
H    -2.418000000     3.219000000    -2.013000000
O     4.838000000     1.697000000    -1.148000000
H     4.030000000     1.192000000    -1.060000000
H     5.536000000     1.043000000    -1.104000000
O    -0.426000000     5.023000000    -3.566000000
H     0.121000000     4.497000000    -4.149000000
H    -0.707000000     4.411000000    -2.885000000
O    -3.507000000    -1.045000000    -2.842000000
H    -2.807000000    -0.397000000    -2.920000000
H    -3.197000000    -1.796000000    -3.348000000
