144
-2812.49889
O    -4.360000000     1.115000000     2.434000000
H    -3.938000000     1.609000000     1.731000000
H    -4.282000000     1.679000000     3.203000000
O     3.653000000    -3.263000000     4.745000000
H     4.372000000    -3.404000000     5.360000000
H     3.244000000    -4.124000000     4.652000000
O     3.303000000     0.825000000     4.349000000
H     2.459000000     0.677000000     3.921000000
H     3.913000000     0.257000000     3.879000000
O    -3.468000000     2.853000000     4.326000000
H    -2.689000000     2.298000000     4.287000000
H    -3.298000000     3.550000000     3.693000000
O    -7.305000000     3.493000000    -1.699000000
H    -7.327000000     2.658000000    -2.167000000
H    -6.497000000     3.459000000    -1.187000000
O    -6.848000000     0.065000000     2.786000000
H    -6.100000000     0.463000000     2.342000000
H    -7.103000000    -0.663000000     2.220000000
O     4.836000000    -0.890000000     2.946000000
H     4.503000000    -1.788000000     2.948000000
H     5.068000000    -0.722000000     2.033000000
O     1.836000000    -4.449000000    -2.754000000
H     2.195000000    -4.126000000    -3.580000000
H     2.475000000    -5.093000000    -2.450000000
O    -2.038000000    -3.196000000    -0.754000000
H    -2.634000000    -2.679000000    -0.211000000
H    -1.449000000    -3.617000000    -0.129000000
O     0.372000000    -4.645000000     3.071000000
H     0.005000000    -5.484000000     3.351000000
H    -0.220000000    -3.990000000     3.440000000
O     4.729000000    -3.491000000    -2.004000000
H     4.593000000    -3.328000000    -2.937000000
H     4.470000000    -4.404000000    -1.880000000
O     1.073000000     6.150000000    -4.338000000
H     0.823000000     5.512000000    -5.007000000
H     0.712000000     5.798000000    -3.525000000
O     2.681000000    -1.312000000    -3.286000000
H     2.181000000    -1.522000000    -2.498000000
H     2.233000000    -0.553000000    -3.660000000
O     2.271000000     4.575000000    -0.118000000
H     2.159000000     3.714000000     0.283000000
H     3.219000000     4.683000000    -0.195000000
O     3.840000000    -4.500000000     1.231000000
H     3.628000000    -4.446000000     0.299000000
H     4.648000000    -3.995000000     1.324000000
O    -1.141000000     2.214000000     3.185000000
H    -0.500000000     1.515000000     3.056000000
H    -1.262000000     2.592000000     2.314000000
O     5.611000000    -1.021000000    -2.264000000
H     5.306000000    -0.877000000    -3.160000000
H     5.607000000    -1.973000000    -2.159000000
O     1.408000000    -1.945000000     4.675000000
H     1.010000000    -2.468000000     5.371000000
H     2.319000000    -2.239000000     4.646000000
O    -1.596000000    -3.771000000     4.681000000
H    -2.448000000    -4.208000000     4.684000000
H    -1.806000000    -2.837000000     4.671000000
O    -0.546000000    -2.417000000    -2.901000000
H    -0.968000000    -2.441000000    -2.043000000
H     0.244000000    -2.947000000    -2.796000000
O    -3.102000000     4.633000000     2.427000000
H    -2.943000000     3.867000000     1.875000000
H    -3.713000000     5.170000000     1.922000000
O    -4.950000000     3.770000000    -0.555000000
H    -4.188000000     3.442000000    -0.079000000
H    -4.591000000     4.123000000    -1.369000000
O    -4.170000000     6.380000000     0.735000000
H    -3.684000000     6.961000000     0.149000000
H    -4.812000000     5.952000000     0.168000000
O     5.209000000     0.171000000     0.252000000
H     5.782000000     0.934000000     0.173000000
H     5.276000000    -0.269000000    -0.595000000
O    -2.822000000     5.323000000    -1.998000000
H    -2.203000000     4.667000000    -1.676000000
H    -2.330000000     6.144000000    -1.983000000
O    -1.580000000    -0.673000000     5.498000000
H    -2.024000000    -0.302000000     6.261000000
H    -0.719000000    -0.256000000     5.496000000
O     6.466000000    -3.558000000     1.392000000
H     7.151000000    -4.128000000     1.742000000
H     6.918000000    -3.007000000     0.753000000
O    -3.720000000    -1.104000000     4.129000000
H    -3.112000000    -0.782000000     4.795000000
H    -3.684000000    -0.447000000     3.434000000
O    -2.076000000    -5.816000000    -2.239000000
H    -1.870000000    -4.919000000    -1.974000000
H    -3.032000000    -5.839000000    -2.281000000
O     0.381000000     2.953000000    -5.568000000
H     0.258000000     2.009000000    -5.663000000
H    -0.151000000     3.335000000    -6.267000000
O    -0.701000000     4.456000000     4.469000000
H    -0.812000000     3.743000000     3.840000000
H    -1.300000000     4.239000000     5.184000000
O    -4.184000000     4.342000000    -3.890000000
H    -3.767000000     4.796000000    -3.158000000
H    -3.629000000     4.543000000    -4.644000000
O    -4.323000000    -0.898000000    -1.554000000
H    -5.183000000    -0.488000000    -1.461000000
H    -4.160000000    -1.307000000    -0.704000000
O     2.457000000     2.384000000     1.017000000
H     1.845000000     1.959000000     1.617000000
H     3.263000000     1.873000000     1.095000000
O    -2.346000000     1.538000000    -3.527000000
H    -3.271000000     1.722000000    -3.687000000
H    -2.137000000     2.032000000    -2.734000000
O     0.985000000     0.178000000     2.878000000
H     0.748000000    -0.339000000     2.108000000
H     1.220000000    -0.472000000     3.540000000
O     0.226000000     4.909000000    -2.051000000
H    -0.406000000     4.204000000    -1.909000000
H     0.910000000     4.752000000    -1.400000000
O     3.421000000     5.136000000    -3.023000000
H     2.594000000     5.617000000    -3.043000000
H     3.315000000     4.507000000    -2.309000000
O     4.763000000    -1.133000000    -5.054000000
H     4.656000000    -1.799000000    -5.732000000
H     3.951000000    -1.173000000    -4.549000000
O    -5.085000000     1.712000000    -4.327000000
H    -4.789000000     2.558000000    -3.992000000
H    -5.704000000     1.396000000    -3.669000000
O    -1.319000000     6.703000000     1.911000000
H    -2.085000000     6.143000000     1.793000000
H    -0.955000000     6.437000000     2.756000000
O    -3.878000000     6.152000000     4.448000000
H    -4.559000000     5.493000000     4.581000000
H    -3.391000000     5.842000000     3.685000000
O    -0.555000000    -5.041000000     0.494000000
H    -0.321000000    -5.906000000     0.157000000
H    -0.028000000    -4.942000000     1.287000000
O     3.026000000    -5.466000000     3.598000000
H     3.218000000    -5.028000000     2.769000000
H     2.079000000    -5.371000000     3.705000000
O     2.855000000     2.002000000    -4.463000000
H     3.293000000     2.751000000    -4.059000000
H     1.976000000     2.320000000    -4.669000000
O     1.355000000    -0.935000000    -6.299000000
H     1.015000000    -0.649000000    -5.451000000
H     0.743000000    -0.572000000    -6.938000000
O    -0.051000000     0.091000000    -4.264000000
H    -0.437000000    -0.693000000    -3.873000000
H    -0.514000000     0.819000000    -3.849000000
O    -4.147000000    -1.998000000     1.194000000
H    -3.961000000    -2.147000000     2.121000000
H    -5.039000000    -1.649000000     1.182000000
