144
-2826.99909
O     0.641000000     3.332000000     4.074000000
H     0.178000000     2.711000000     3.512000000
H     0.273000000     4.185000000     3.842000000
O     0.156000000    -5.589000000    -1.477000000
H     0.249000000    -6.525000000    -1.302000000
H    -0.759000000    -5.397000000    -1.275000000
O     3.599000000    -2.775000000     7.081000000
H     3.043000000    -2.467000000     6.365000000
H     4.490000000    -2.580000000     6.793000000
O    -3.913000000     5.760000000     1.010000000
H    -3.439000000     6.031000000     0.224000000
H    -4.835000000     5.893000000     0.792000000
O     3.861000000    -2.311000000     3.331000000
H     3.713000000    -2.900000000     2.591000000
H     3.027000000    -2.306000000     3.802000000
O    -2.126000000     5.880000000    -1.049000000
H    -2.022000000     4.952000000    -1.258000000
H    -1.231000000     6.219000000    -1.014000000
O    -5.288000000     2.187000000     2.700000000
H    -5.453000000     2.206000000     1.757000000
H    -5.085000000     3.096000000     2.925000000
O    -5.428000000    -0.428000000    -1.519000000
H    -5.856000000     0.120000000    -2.178000000
H    -4.734000000     0.126000000    -1.162000000
O    -0.879000000    -1.364000000     4.038000000
H    -1.532000000    -1.625000000     4.687000000
H    -1.038000000    -1.940000000     3.291000000
O    -0.644000000    -4.683000000     2.211000000
H     0.175000000    -4.823000000     1.736000000
H    -0.373000000    -4.534000000     3.117000000
O     5.514000000    -2.269000000    -0.407000000
H     5.134000000    -2.340000000    -1.283000000
H     4.863000000    -2.670000000     0.169000000
O     3.373000000     4.021000000     1.010000000
H     2.628000000     4.608000000     1.135000000
H     3.136000000     3.492000000     0.248000000
O     6.285000000     1.026000000     0.530000000
H     6.181000000     0.363000000    -0.153000000
H     5.641000000     0.787000000     1.196000000
O     4.142000000    -4.096000000     1.308000000
H     4.912000000    -4.489000000     1.719000000
H     3.782000000    -4.791000000     0.758000000
O    -5.431000000     2.480000000    -0.057000000
H    -4.543000000     2.267000000    -0.343000000
H    -5.844000000     2.869000000    -0.829000000
O    -1.083000000     3.675000000    -3.587000000
H    -1.423000000     3.462000000    -2.718000000
H    -0.366000000     4.288000000    -3.419000000
O     3.668000000     0.725000000     5.391000000
H     4.556000000     1.030000000     5.579000000
H     3.345000000     1.327000000     4.720000000
O     1.719000000    -7.123000000     1.592000000
H     1.551000000    -6.778000000     0.715000000
H     2.655000000    -7.324000000     1.595000000
O     4.872000000     0.104000000     2.628000000
H     4.196000000    -0.574000000     2.617000000
H     4.438000000     0.868000000     3.010000000
O    -4.155000000     0.216000000     4.593000000
H    -4.491000000     0.641000000     3.803000000
H    -3.545000000     0.852000000     4.966000000
O    -6.518000000     0.605000000    -3.741000000
H    -5.892000000     1.050000000    -4.312000000
H    -6.417000000    -0.323000000    -3.954000000
O     3.009000000     3.492000000    -1.972000000
H     2.544000000     2.658000000    -1.899000000
H     3.415000000     3.465000000    -2.838000000
O     2.849000000    -5.479000000    -0.527000000
H     3.311000000    -6.024000000    -1.164000000
H     2.077000000    -5.162000000    -0.997000000
O    -0.247000000     4.448000000    -6.201000000
H     0.689000000     4.602000000    -6.329000000
H    -0.309000000     4.053000000    -5.332000000
O     0.537000000    -4.369000000     4.886000000
H     0.837000000    -3.479000000     5.069000000
H     0.127000000    -4.657000000     5.702000000
O     1.570000000    -1.790000000     5.196000000
H     0.693000000    -1.608000000     4.857000000
H     2.064000000    -0.989000000     5.026000000
O    -4.036000000    -2.617000000    -0.298000000
H    -4.381000000    -1.821000000    -0.702000000
H    -4.029000000    -2.426000000     0.640000000
O    -2.079000000    -5.184000000    -0.016000000
H    -1.872000000    -5.247000000     0.916000000
H    -2.415000000    -4.295000000    -0.127000000
O    -4.164000000    -4.401000000    -2.455000000
H    -4.321000000    -3.889000000    -1.661000000
H    -3.351000000    -4.043000000    -2.813000000
O     3.084000000    -1.832000000    -2.497000000
H     3.237000000    -2.772000000    -2.602000000
H     2.464000000    -1.612000000    -3.192000000
O    -0.110000000     0.853000000    -4.406000000
H    -0.398000000     1.655000000    -3.970000000
H     0.116000000     1.131000000    -5.293000000
O     0.619000000    -3.442000000    -4.220000000
H     1.225000000    -3.840000000    -3.595000000
H     1.008000000    -2.590000000    -4.421000000
O     3.053000000     0.875000000    -2.445000000
H     3.772000000     0.711000000    -3.055000000
H     2.855000000     0.016000000    -2.072000000
O     1.385000000     5.773000000     1.690000000
H     0.479000000     5.465000000     1.669000000
H     1.392000000     6.452000000     2.364000000
O    -3.575000000     6.917000000    -3.227000000
H    -2.911000000     6.907000000    -3.916000000
H    -3.092000000     6.715000000    -2.426000000
O     2.996000000     2.418000000     3.412000000
H     3.159000000     3.104000000     2.764000000
H     2.115000000     2.602000000     3.739000000
O    -0.915000000     4.447000000     1.524000000
H    -1.549000000     4.481000000     0.808000000
H    -0.979000000     3.553000000     1.860000000
O    -4.383000000     3.552000000    -3.284000000
H    -5.216000000     3.261000000    -2.911000000
H    -3.723000000     3.244000000    -2.664000000
O    -3.923000000     1.311000000    -5.328000000
H    -3.551000000     2.188000000    -5.233000000
H    -3.465000000     0.785000000    -4.671000000
O     1.142000000     5.431000000    -2.905000000
H     1.344000000     6.080000000    -2.231000000
H     1.846000000     4.786000000    -2.834000000
O    -6.842000000     3.054000000    -2.183000000
H    -7.652000000     3.558000000    -2.114000000
H    -7.068000000     2.313000000    -2.745000000
O    -4.384000000    -1.998000000     2.532000000
H    -4.071000000    -1.441000000     3.245000000
H    -5.264000000    -1.673000000     2.341000000
O    -2.969000000    -0.851000000    -3.643000000
H    -2.089000000    -1.228000000    -3.670000000
H    -2.982000000    -0.331000000    -2.840000000
O    -5.522000000    -1.831000000    -4.655000000
H    -4.685000000    -1.418000000    -4.442000000
H    -5.893000000    -2.070000000    -3.806000000
O    -0.528000000     1.389000000     2.561000000
H    -1.232000000     0.874000000     2.953000000
H    -0.328000000     0.938000000     1.741000000
O     3.495000000    -4.579000000    -3.298000000
H     3.020000000    -4.960000000    -4.036000000
H     4.049000000    -5.290000000    -2.976000000
O     5.973000000    -3.392000000     5.125000000
H     5.344000000    -3.132000000     4.452000000
H     6.439000000    -2.585000000     5.342000000
O     1.990000000    -1.062000000    -4.652000000
H     1.414000000    -0.355000000    -4.364000000
H     2.660000000    -0.626000000    -5.179000000
