144
-2793.27061
O    -5.062000000     3.989000000    -4.194000000
H    -4.920000000     4.405000000    -3.344000000
H    -4.329000000     3.381000000    -4.289000000
O    -5.778000000     2.913000000     0.480000000
H    -6.489000000     2.930000000     1.121000000
H    -6.102000000     3.437000000    -0.252000000
O    -0.057000000    -1.754000000     4.610000000
H    -0.032000000    -0.985000000     5.180000000
H     0.483000000    -2.403000000     5.060000000
O     2.322000000     0.907000000     4.335000000
H     1.427000000     1.197000000     4.511000000
H     2.640000000     1.506000000     3.660000000
O    -2.560000000    -5.214000000    -1.038000000
H    -3.057000000    -4.803000000    -0.332000000
H    -3.197000000    -5.770000000    -1.488000000
O     0.088000000     2.628000000     4.597000000
H    -0.056000000     3.345000000     3.979000000
H     0.678000000     2.995000000     5.256000000
O     2.719000000    -6.034000000    -0.361000000
H     1.802000000    -5.973000000    -0.093000000
H     2.769000000    -5.515000000    -1.164000000
O    -0.813000000    -7.100000000     2.101000000
H    -0.557000000    -7.184000000     1.182000000
H    -1.339000000    -6.301000000     2.131000000
O     5.366000000    -0.887000000     1.323000000
H     6.024000000    -0.257000000     1.617000000
H     5.866000000    -1.675000000     1.113000000
O     3.669000000    -1.454000000     3.494000000
H     2.972000000    -0.799000000     3.520000000
H     4.021000000    -1.395000000     2.606000000
O     3.090000000    -6.873000000     2.513000000
H     3.576000000    -7.697000000     2.545000000
H     3.227000000    -6.549000000     1.623000000
O     2.537000000     1.439000000    -0.270000000
H     2.599000000     1.679000000     0.654000000
H     1.739000000     0.913000000    -0.328000000
O     4.985000000    -1.282000000    -1.353000000
H     4.666000000    -1.476000000    -0.472000000
H     4.319000000    -0.705000000    -1.728000000
O     3.027000000    -3.493000000     5.063000000
H     3.664000000    -4.197000000     4.942000000
H     3.268000000    -2.836000000     4.409000000
O    -2.358000000    -3.262000000     4.945000000
H    -1.991000000    -3.845000000     5.610000000
H    -1.606000000    -2.771000000     4.615000000
O    -2.902000000     2.267000000    -4.127000000
H    -2.552000000     2.382000000    -3.244000000
H    -2.157000000     2.430000000    -4.704000000
O    -2.033000000     6.803000000     2.916000000
H    -2.907000000     6.478000000     3.131000000
H    -2.190000000     7.638000000     2.473000000
O     0.354000000    -5.035000000     4.079000000
H     0.141000000    -5.967000000     4.128000000
H     1.067000000    -4.986000000     3.442000000
O    -3.306000000    -2.374000000     0.240000000
H    -3.992000000    -1.815000000     0.604000000
H    -2.503000000    -1.861000000     0.339000000
O    -2.641000000     0.347000000     3.359000000
H    -2.933000000     1.187000000     3.005000000
H    -1.733000000     0.267000000     3.067000000
O    -3.393000000    -0.233000000    -2.383000000
H    -3.441000000     0.605000000    -2.843000000
H    -3.630000000    -0.024000000    -1.480000000
O    -1.179000000     5.113000000    -3.628000000
H    -0.270000000     4.812000000    -3.643000000
H    -1.570000000     4.655000000    -2.884000000
O     3.498000000     0.232000000    -3.262000000
H     4.114000000     0.948000000    -3.109000000
H     3.176000000     0.379000000    -4.152000000
O     0.446000000     0.435000000    -5.165000000
H    -0.119000000    -0.270000000    -4.849000000
H     0.912000000     0.053000000    -5.909000000
O    -0.717000000    -5.286000000    -5.036000000
H    -0.415000000    -4.729000000    -4.319000000
H    -1.668000000    -5.322000000    -4.927000000
O    -0.370000000     0.431000000     6.312000000
H    -0.181000000     1.147000000     5.705000000
H     0.267000000     0.542000000     7.019000000
O     2.615000000    -4.375000000    -2.769000000
H     2.527000000    -3.628000000    -3.361000000
H     1.715000000    -4.652000000    -2.597000000
O    -1.038000000     6.035000000    -6.231000000
H    -1.249000000     5.723000000    -5.351000000
H    -1.889000000     6.197000000    -6.638000000
O    -4.057000000     4.393000000    -1.704000000
H    -4.329000000     4.883000000    -0.928000000
H    -3.255000000     3.944000000    -1.435000000
O    -3.617000000     6.518000000    -4.044000000
H    -4.006000000     6.853000000    -3.236000000
H    -2.829000000     6.056000000    -3.758000000
O    -2.445000000    -4.981000000     2.674000000
H    -2.198000000    -4.125000000     3.025000000
H    -3.030000000    -4.781000000     1.944000000
O     5.206000000    -4.041000000    -2.416000000
H     5.122000000    -3.213000000    -1.944000000
H     4.306000000    -4.345000000    -2.531000000
O    -1.093000000    -1.400000000    -4.055000000
H    -1.798000000    -1.078000000    -3.492000000
H    -1.514000000    -2.054000000    -4.614000000
O     3.140000000     2.548000000     2.312000000
H     2.896000000     3.421000000     2.006000000
H     4.096000000     2.538000000     2.272000000
O    -0.734000000     4.437000000     2.347000000
H    -1.276000000     5.194000000     2.572000000
H    -1.048000000     4.167000000     1.483000000
O     2.365000000     2.445000000    -4.808000000
H     1.755000000     1.724000000    -4.964000000
H     2.025000000     2.882000000    -4.027000000
O    -5.068000000     6.311000000     0.387000000
H    -4.765000000     6.606000000     1.246000000
H    -5.929000000     5.929000000     0.556000000
O    -3.554000000     2.399000000     1.719000000
H    -3.075000000     2.207000000     0.913000000
H    -4.282000000     2.955000000     1.438000000
O    -3.932000000    -3.061000000    -2.452000000
H    -3.218000000    -3.477000000    -1.969000000
H    -3.860000000    -2.132000000    -2.233000000
O    -1.725000000     6.361000000    -0.381000000
H    -2.241000000     6.939000000     0.181000000
H    -1.840000000     5.490000000     0.000000000
O    -1.384000000     2.191000000    -6.570000000
H    -0.570000000     2.409000000    -7.025000000
H    -1.168000000     1.417000000    -6.051000000
O     1.969000000     4.839000000     1.443000000
H     1.201000000     4.633000000     1.975000000
H     2.062000000     5.789000000     1.514000000
O    -4.844000000     0.444000000     0.155000000
H    -4.523000000     0.643000000     1.035000000
H    -5.181000000     1.278000000    -0.172000000
O     0.192000000    -5.207000000    -1.759000000
H    -0.561000000    -4.762000000    -1.370000000
H     0.176000000    -6.084000000    -1.376000000
O     0.726000000     7.354000000    -1.530000000
H     0.043000000     6.774000000    -1.193000000
H     0.248000000     8.071000000    -1.945000000
O     1.146000000     3.546000000    -2.615000000
H     1.669000000     3.275000000    -1.860000000
H     0.264000000     3.229000000    -2.422000000
O     1.841000000    -2.263000000    -4.285000000
H     2.099000000    -1.429000000    -3.892000000
H     0.886000000    -2.277000000    -4.211000000
O     6.648000000    -1.999000000     3.445000000
H     5.781000000    -2.316000000     3.195000000
H     7.227000000    -2.748000000     3.304000000
