144
-2807.35104
O    -3.050000000    -3.151000000    -1.234000000
H    -3.701000000    -3.742000000    -0.856000000
H    -3.522000000    -2.685000000    -1.924000000
O    -6.883000000     2.423000000     1.624000000
H    -6.666000000     1.792000000     0.938000000
H    -6.038000000     2.662000000     2.006000000
O    -6.203000000     1.015000000    -5.699000000
H    -5.304000000     0.813000000    -5.439000000
H    -6.284000000     1.960000000    -5.569000000
O    -6.005000000     0.567000000    -2.877000000
H    -5.131000000     0.904000000    -3.072000000
H    -6.601000000     1.227000000    -3.232000000
O     0.523000000    -3.740000000     4.990000000
H     0.745000000    -3.428000000     4.113000000
H    -0.433000000    -3.803000000     4.987000000
O     1.056000000    -0.723000000     4.977000000
H     1.800000000    -0.700000000     5.579000000
H     0.695000000    -1.604000000     5.077000000
O     5.630000000     0.733000000     3.448000000
H     5.523000000     1.173000000     4.292000000
H     6.179000000    -0.027000000     3.642000000
O     0.819000000     2.911000000     0.603000000
H     1.558000000     2.890000000     1.212000000
H     0.450000000     2.028000000     0.644000000
O     3.714000000    -5.543000000    -1.342000000
H     3.712000000    -4.615000000    -1.110000000
H     4.280000000    -5.596000000    -2.112000000
O     7.658000000    -2.718000000    -0.005000000
H     7.007000000    -2.190000000     0.457000000
H     8.285000000    -2.081000000    -0.347000000
O    -4.763000000    -0.888000000     0.712000000
H    -4.451000000    -0.054000000     0.361000000
H    -4.273000000    -1.551000000     0.226000000
O     5.544000000    -0.614000000     0.131000000
H     5.330000000     0.181000000     0.619000000
H     5.675000000    -0.315000000    -0.769000000
O     0.973000000     1.765000000     4.058000000
H     0.873000000     0.859000000     4.351000000
H     0.105000000     2.151000000     4.173000000
O     3.255000000     0.876000000    -3.788000000
H     4.001000000     0.369000000    -3.469000000
H     2.963000000     1.378000000    -3.027000000
O    -3.418000000     0.593000000    -4.856000000
H    -3.106000000     0.920000000    -4.012000000
H    -2.688000000     0.075000000    -5.196000000
O     5.931000000     3.505000000    -0.765000000
H     6.598000000     2.919000000    -1.123000000
H     5.649000000     3.080000000     0.045000000
O    -4.266000000     2.459000000     2.047000000
H    -3.913000000     3.281000000     2.387000000
H    -3.890000000     2.381000000     1.170000000
O    -0.506000000    -3.261000000    -0.083000000
H    -1.442000000    -3.404000000    -0.224000000
H    -0.461000000    -2.742000000     0.720000000
O    -3.230000000    -1.377000000     4.517000000
H    -2.399000000    -0.917000000     4.633000000
H    -3.889000000    -0.775000000     4.862000000
O    -5.137000000     3.700000000    -6.193000000
H    -5.351000000     4.011000000    -5.313000000
H    -4.180000000     3.715000000    -6.226000000
O    -1.315000000    -2.085000000    -3.276000000
H    -0.415000000    -2.411000000    -3.291000000
H    -1.604000000    -2.221000000    -2.374000000
O     2.250000000     2.637000000    -1.723000000
H     1.764000000     2.667000000    -0.899000000
H     1.870000000     3.339000000    -2.252000000
O     4.607000000     3.535000000    -3.244000000
H     3.844000000     3.256000000    -2.738000000
H     5.341000000     3.455000000    -2.635000000
O     1.730000000     0.004000000    -6.149000000
H     2.250000000     0.338000000    -6.880000000
H     2.006000000     0.530000000    -5.398000000
O    -4.818000000     0.913000000     4.233000000
H    -4.421000000     1.541000000     4.835000000
H    -4.743000000     1.325000000     3.372000000
O    -2.017000000     3.702000000    -3.238000000
H    -2.351000000     2.903000000    -2.832000000
H    -2.242000000     3.613000000    -4.164000000
O    -2.312000000    -3.810000000     5.018000000
H    -2.709000000    -2.954000000     4.860000000
H    -2.644000000    -4.073000000     5.876000000
O    -6.899000000     0.338000000    -0.320000000
H    -6.456000000     0.297000000    -1.167000000
H    -6.381000000    -0.229000000     0.250000000
O     0.022000000     2.382000000    -6.292000000
H    -0.426000000     1.684000000    -5.815000000
H    -0.115000000     2.168000000    -7.215000000
O     2.655000000     3.294000000     2.486000000
H     2.022000000     2.839000000     3.041000000
H     2.447000000     4.222000000     2.595000000
O     3.898000000    -2.662000000    -4.777000000
H     4.606000000    -2.231000000    -4.299000000
H     4.099000000    -3.595000000    -4.712000000
O    -1.819000000     1.092000000     7.102000000
H    -1.762000000     1.479000000     6.228000000
H    -2.731000000     0.815000000     7.183000000
O     0.566000000     4.709000000    -2.655000000
H     0.386000000     5.631000000    -2.839000000
H    -0.223000000     4.249000000    -2.941000000
O    -3.615000000     1.715000000    -8.053000000
H    -3.596000000     1.609000000    -7.102000000
H    -2.695000000     1.786000000    -8.305000000
O    -1.434000000     3.837000000     2.068000000
H    -0.726000000     3.824000000     1.425000000
H    -1.928000000     4.631000000     1.865000000
O     1.621000000    -4.813000000     1.376000000
H     0.712000000    -4.685000000     1.104000000
H     2.121000000    -4.203000000     0.833000000
O    -0.884000000    -0.316000000    -5.802000000
H    -0.828000000    -1.127000000    -5.295000000
H    -0.079000000    -0.302000000    -6.320000000
O    -1.646000000     2.695000000     4.503000000
H    -2.385000000     3.226000000     4.803000000
H    -1.590000000     2.872000000     3.564000000
O    -5.204000000     5.032000000    -3.750000000
H    -5.723000000     5.426000000    -3.049000000
H    -4.310000000     5.331000000    -3.584000000
O    -7.430000000     2.746000000    -3.320000000
H    -8.067000000     3.378000000    -2.985000000
H    -6.611000000     3.239000000    -3.374000000
O    -5.170000000    -2.148000000    -2.489000000
H    -5.969000000    -2.308000000    -1.987000000
H    -5.203000000    -1.214000000    -2.699000000
O    -5.504000000    -1.843000000     2.951000000
H    -4.733000000    -1.822000000     3.517000000
H    -5.238000000    -1.363000000     2.167000000
O     5.782000000    -4.404000000     1.009000000
H     5.039000000    -4.354000000     0.408000000
H     6.486000000    -3.938000000     0.557000000
O    -3.529000000     4.456000000    -0.964000000
H    -2.789000000     4.441000000    -1.570000000
H    -3.908000000     3.580000000    -1.027000000
O     4.862000000     2.095000000     1.299000000
H     4.165000000     2.530000000     1.791000000
H     5.316000000     1.560000000     1.950000000
O     6.025000000    -4.621000000     3.727000000
H     5.867000000    -4.404000000     2.808000000
H     5.443000000    -4.037000000     4.215000000
O     1.481000000    -1.981000000    -3.718000000
H     1.476000000    -1.028000000    -3.634000000
H     2.326000000    -2.182000000    -4.122000000
O     1.954000000    -3.301000000    -1.247000000
H     1.644000000    -2.721000000    -1.942000000
H     1.155000000    -3.635000000    -0.839000000
