144
-2783.53377
O    -3.395000000     1.635000000    -1.795000000
H    -3.078000000     1.380000000    -2.662000000
H    -2.837000000     2.370000000    -1.542000000
O     2.395000000    -0.632000000     6.415000000
H     1.870000000    -0.841000000     5.642000000
H     2.140000000    -1.290000000     7.063000000
O    -4.520000000    -0.530000000     3.704000000
H    -3.881000000     0.006000000     4.172000000
H    -4.042000000    -0.867000000     2.947000000
O     6.273000000     0.103000000     3.872000000
H     5.953000000    -0.120000000     4.746000000
H     5.521000000    -0.040000000     3.297000000
O     3.335000000     1.601000000     3.014000000
H     3.342000000     0.645000000     2.955000000
H     2.489000000     1.810000000     3.411000000
O     4.331000000    -3.566000000     2.600000000
H     5.278000000    -3.430000000     2.579000000
H     4.218000000    -4.398000000     3.060000000
O     3.183000000     5.449000000    -0.654000000
H     2.975000000     4.853000000    -1.374000000
H     2.997000000     4.943000000     0.137000000
O     3.111000000    -1.665000000    -5.217000000
H     2.558000000    -1.463000000    -5.972000000
H     3.681000000    -2.372000000    -5.520000000
O     7.601000000     0.555000000    -1.800000000
H     7.296000000     0.565000000    -0.893000000
H     7.405000000     1.432000000    -2.128000000
O    -2.385000000     0.395000000    -3.938000000
H    -2.140000000    -0.530000000    -3.929000000
H    -3.150000000     0.434000000    -4.512000000
O     5.933000000     2.407000000     1.399000000
H     5.311000000     1.759000000     1.731000000
H     6.786000000     2.098000000     1.704000000
O    -4.568000000    -3.489000000    -0.279000000
H    -3.874000000    -4.113000000    -0.491000000
H    -4.174000000    -2.902000000     0.365000000
O     0.530000000    -3.775000000     5.968000000
H     1.474000000    -3.825000000     6.119000000
H     0.171000000    -4.516000000     6.457000000
O     0.101000000    -4.345000000     2.651000000
H     0.803000000    -4.615000000     3.243000000
H    -0.045000000    -3.422000000     2.858000000
O     4.217000000    -0.822000000     2.179000000
H     4.929000000    -0.887000000     1.544000000
H     3.788000000    -1.677000000     2.148000000
O     5.670000000     5.127000000    -2.967000000
H     5.599000000     5.974000000    -2.527000000
H     4.780000000     4.775000000    -2.956000000
O    -3.053000000    -3.970000000     3.557000000
H    -2.211000000    -4.409000000     3.436000000
H    -2.879000000    -3.055000000     3.336000000
O     1.454000000    -4.793000000     0.237000000
H     0.836000000    -4.638000000     0.952000000
H     2.277000000    -5.010000000     0.675000000
O    -5.666000000    -4.985000000     2.396000000
H    -4.912000000    -4.887000000     2.978000000
H    -5.480000000    -4.397000000     1.664000000
O    -3.452000000     3.858000000    -4.988000000
H    -2.807000000     3.172000000    -4.813000000
H    -4.139000000     3.418000000    -5.489000000
O    -1.279000000     1.645000000     3.495000000
H    -1.813000000     1.347000000     4.231000000
H    -0.759000000     0.879000000     3.251000000
O    -0.365000000     5.614000000     2.440000000
H    -0.256000000     4.667000000     2.349000000
H    -1.275000000     5.775000000     2.194000000
O    -2.446000000    -4.776000000    -1.484000000
H    -2.865000000    -5.087000000    -2.286000000
H    -1.514000000    -4.944000000    -1.620000000
O     4.137000000     0.356000000    -3.439000000
H     5.064000000     0.531000000    -3.276000000
H     4.102000000    -0.579000000    -3.640000000
O     0.842000000    -2.806000000    -1.771000000
H     1.122000000    -3.386000000    -1.063000000
H     0.536000000    -2.015000000    -1.327000000
O    -6.805000000     0.950000000     3.645000000
H    -6.290000000     1.732000000     3.448000000
H    -6.152000000     0.274000000     3.828000000
O    -0.370000000     3.841000000    -2.827000000
H    -0.964000000     3.668000000    -3.558000000
H     0.504000000     3.810000000    -3.217000000
O    -1.484000000    -2.960000000    -5.883000000
H    -0.839000000    -2.592000000    -5.279000000
H    -1.112000000    -2.807000000    -6.752000000
O    -0.455000000     2.460000000    -5.195000000
H     0.474000000     2.379000000    -4.980000000
H    -0.838000000     1.628000000    -4.919000000
O    -0.236000000     2.912000000     1.254000000
H    -0.086000000     2.284000000     0.548000000
H    -0.706000000     2.413000000     1.922000000
O    -7.344000000    -3.282000000    -0.302000000
H    -6.391000000    -3.258000000    -0.388000000
H    -7.570000000    -2.437000000     0.088000000
O     0.506000000    -1.698000000    -4.307000000
H     1.423000000    -1.736000000    -4.579000000
H     0.516000000    -1.971000000    -3.390000000
O     2.637000000     3.998000000     1.647000000
H     1.780000000     3.578000000     1.713000000
H     3.201000000     3.482000000     2.224000000
O    -4.889000000    -0.095000000     0.162000000
H    -4.388000000     0.291000000    -0.556000000
H    -4.322000000    -0.785000000     0.506000000
O     0.382000000     3.135000000    -7.696000000
H     0.211000000     2.926000000    -6.778000000
H     0.366000000     2.287000000    -8.141000000
O     1.177000000     2.810000000     4.346000000
H     0.564000000     2.257000000     4.830000000
H     0.749000000     3.665000000     4.306000000
O     3.020000000     4.248000000    -3.215000000
H     2.837000000     3.333000000    -3.429000000
H     2.648000000     4.743000000    -3.945000000
O    -1.590000000    -6.566000000     1.383000000
H    -0.971000000    -5.856000000     1.213000000
H    -1.444000000    -6.796000000     2.300000000
O    -0.769000000     1.191000000     7.033000000
H    -0.691000000     0.511000000     6.363000000
H    -0.308000000     0.833000000     7.791000000
O    -5.931000000    -3.368000000    -3.598000000
H    -5.975000000    -2.498000000    -3.203000000
H    -5.225000000    -3.304000000    -4.241000000
O    -6.104000000     2.381000000    -2.356000000
H    -5.471000000     1.799000000    -1.936000000
H    -5.794000000     3.262000000    -2.148000000
O    -5.804000000    -2.263000000     5.504000000
H    -5.342000000    -1.645000000     4.938000000
H    -6.363000000    -2.762000000     4.909000000
O    -0.434000000    -0.957000000     4.938000000
H    -0.424000000    -1.715000000     5.524000000
H    -0.881000000    -1.268000000     4.152000000
O     2.255000000     1.914000000    -4.754000000
H     2.777000000     1.325000000    -4.209000000
H     2.701000000     1.916000000    -5.601000000
O    -7.686000000    -0.708000000     0.387000000
H    -6.837000000    -0.486000000     0.768000000
H    -7.566000000    -0.580000000    -0.555000000
O    -3.107000000     1.285000000     5.440000000
H    -3.836000000     1.905000000     5.451000000
H    -2.966000000     1.064000000     6.360000000
O    -3.069000000    -3.804000000     6.658000000
H    -3.947000000    -3.807000000     7.038000000
H    -3.215000000    -3.874000000     5.715000000
O    -4.837000000     2.351000000     1.865000000
H    -4.709000000     1.481000000     1.487000000
H    -4.425000000     2.947000000     1.241000000
