144
-2811.57991
O     5.581000000     0.174000000     2.232000000
H     6.530000000     0.270000000     2.153000000
H     5.389000000    -0.664000000     1.810000000
O    -3.205000000    -3.438000000    -2.945000000
H    -2.807000000    -2.583000000    -2.782000000
H    -3.179000000    -3.880000000    -2.096000000
O    -3.065000000    -0.228000000    -5.220000000
H    -3.975000000    -0.180000000    -5.511000000
H    -3.119000000    -0.524000000    -4.311000000
O    -7.745000000     0.505000000    -4.472000000
H    -7.228000000     0.092000000    -3.780000000
H    -8.618000000     0.124000000    -4.379000000
O    -2.646000000     3.239000000    -2.519000000
H    -3.539000000     3.133000000    -2.191000000
H    -2.691000000     2.956000000    -3.432000000
O    -6.966000000     0.392000000     1.423000000
H    -6.907000000     0.248000000     2.367000000
H    -7.788000000    -0.026000000     1.167000000
O     1.530000000     0.211000000     4.716000000
H     2.465000000     0.401000000     4.782000000
H     1.354000000     0.199000000     3.775000000
O    -4.620000000     2.544000000     0.888000000
H    -5.240000000     2.870000000     1.540000000
H    -4.805000000     1.606000000     0.830000000
O     1.380000000    -3.788000000     2.998000000
H     0.458000000    -4.020000000     2.881000000
H     1.820000000    -4.624000000     3.150000000
O     4.099000000    -1.765000000     4.729000000
H     4.386000000    -0.853000000     4.698000000
H     4.297000000    -2.109000000     3.858000000
O    -0.318000000    -4.175000000    -0.859000000
H    -0.079000000    -3.926000000     0.034000000
H    -1.108000000    -4.706000000    -0.756000000
O     0.238000000    -2.379000000     5.078000000
H     0.768000000    -2.834000000     4.424000000
H     0.693000000    -1.550000000     5.221000000
O     1.092000000     4.164000000     5.106000000
H     0.484000000     3.481000000     4.821000000
H     1.109000000     4.787000000     4.380000000
O    -6.406000000     2.898000000    -3.679000000
H    -6.963000000     2.209000000    -4.042000000
H    -5.972000000     2.486000000    -2.931000000
O    -0.685000000     6.056000000     1.246000000
H    -1.445000000     6.583000000     1.494000000
H    -1.050000000     5.199000000     1.025000000
O    -4.583000000    -0.649000000     0.825000000
H    -5.438000000    -0.220000000     0.788000000
H    -4.209000000    -0.514000000    -0.045000000
O     3.289000000     3.448000000     3.230000000
H     3.279000000     3.598000000     2.284000000
H     2.523000000     3.919000000     3.556000000
O     6.016000000     2.736000000    -2.633000000
H     5.583000000     2.500000000    -1.813000000
H     5.327000000     3.144000000    -3.158000000
O     5.554000000    -2.496000000     1.619000000
H     4.927000000    -3.075000000     1.185000000
H     5.846000000    -2.989000000     2.385000000
O    -1.568000000    -0.497000000     4.363000000
H    -1.464000000    -0.310000000     5.296000000
H    -1.009000000    -1.259000000     4.208000000
O    -4.094000000     3.114000000     4.302000000
H    -3.669000000     2.387000000     3.848000000
H    -3.691000000     3.123000000     5.170000000
O    -5.474000000     1.713000000    -1.513000000
H    -5.406000000     2.332000000    -0.786000000
H    -4.743000000     1.109000000    -1.383000000
O     4.157000000     1.159000000     4.290000000
H     4.601000000     0.800000000     3.522000000
H     3.875000000     2.032000000     4.017000000
O    -3.774000000     0.403000000     3.232000000
H    -4.043000000    -0.185000000     2.526000000
H    -2.889000000     0.118000000     3.456000000
O    -6.282000000    -0.007000000     4.107000000
H    -5.407000000     0.293000000     3.860000000
H    -6.574000000     0.624000000     4.765000000
O     1.339000000     2.183000000    -4.110000000
H     2.241000000     1.866000000    -4.157000000
H     0.875000000     1.685000000    -4.783000000
O    -0.605000000    -4.807000000    -3.743000000
H    -1.357000000    -4.398000000    -4.172000000
H    -0.619000000    -4.458000000    -2.852000000
O     3.357000000    -4.056000000     0.478000000
H     3.595000000    -4.983000000     0.456000000
H     2.780000000    -3.975000000     1.237000000
O     3.687000000     2.471000000    -0.987000000
H     3.103000000     3.126000000    -0.605000000
H     3.117000000     1.934000000    -1.537000000
O    -4.134000000    -5.529000000    -4.816000000
H    -4.861000000    -5.882000000    -4.302000000
H    -3.670000000    -4.953000000    -4.209000000
O    -2.772000000     2.383000000    -5.142000000
H    -2.458000000     2.612000000    -6.017000000
H    -2.931000000     1.440000000    -5.185000000
O    -2.111000000     3.780000000     0.272000000
H    -1.953000000     3.169000000    -0.447000000
H    -2.847000000     3.399000000     0.752000000
O     3.536000000     2.823000000     6.507000000
H     2.806000000     3.441000000     6.550000000
H     3.422000000     2.376000000     5.668000000
O     3.642000000     0.784000000    -4.709000000
H     4.310000000     1.203000000    -5.251000000
H     3.834000000    -0.151000000    -4.773000000
O    -5.946000000    -1.016000000    -2.911000000
H    -5.588000000    -1.592000000    -3.586000000
H    -5.189000000    -0.527000000    -2.586000000
O    -3.813000000    -3.202000000     0.700000000
H    -3.517000000    -3.113000000     1.606000000
H    -3.922000000    -2.301000000     0.394000000
O    -1.836000000     4.618000000     3.910000000
H    -2.072000000     5.372000000     3.371000000
H    -2.675000000     4.232000000     4.163000000
O     6.670000000    -1.922000000    -0.758000000
H     6.915000000    -1.048000000    -1.061000000
H     6.412000000    -1.796000000     0.155000000
O    -5.363000000    -2.772000000    -4.929000000
H    -5.092000000    -3.592000000    -4.516000000
H    -4.775000000    -2.676000000    -5.678000000
O    -0.310000000    -0.211000000    -5.751000000
H    -0.289000000     0.028000000    -4.825000000
H    -1.232000000    -0.132000000    -5.998000000
O    -8.476000000     1.801000000    -1.227000000
H    -7.544000000     1.581000000    -1.218000000
H    -8.550000000     2.555000000    -0.642000000
O     2.151000000    -1.639000000    -6.694000000
H     1.829000000    -2.539000000    -6.634000000
H     1.412000000    -1.101000000    -6.412000000
O     2.007000000     4.364000000    -0.025000000
H     1.206000000     4.335000000    -0.549000000
H     1.741000000     4.778000000     0.796000000
O    -2.165000000    -2.996000000    -5.464000000
H    -2.555000000    -2.886000000    -6.331000000
H    -2.272000000    -2.143000000    -5.043000000
O     5.905000000     2.590000000     0.488000000
H     5.119000000     2.735000000    -0.039000000
H     5.655000000     1.906000000     1.109000000
O     0.042000000     4.090000000    -2.515000000
H    -0.850000000     3.774000000    -2.368000000
H     0.384000000     3.526000000    -3.208000000
O     2.711000000    -4.081000000    -2.530000000
H     1.833000000    -4.152000000    -2.156000000
H     3.290000000    -4.017000000    -1.771000000
O    -7.881000000    -2.502000000    -1.499000000
H    -8.711000000    -2.025000000    -1.524000000
H    -7.244000000    -1.893000000    -1.872000000
