144
-2823.68596
O     5.301000000     0.211000000     3.206000000
H     6.194000000     0.038000000     2.910000000
H     5.401000000     0.863000000     3.900000000
O     6.739000000     1.273000000    -1.335000000
H     6.084000000     1.946000000    -1.146000000
H     6.242000000     0.455000000    -1.355000000
O     1.554000000    -0.589000000     5.289000000
H     1.925000000    -0.729000000     6.160000000
H     0.647000000    -0.331000000     5.454000000
O    -2.966000000    -4.093000000    -2.654000000
H    -2.388000000    -3.343000000    -2.789000000
H    -3.011000000    -4.193000000    -1.703000000
O    -4.752000000     0.021000000    -4.170000000
H    -4.956000000    -0.914000000    -4.153000000
H    -4.117000000     0.140000000    -3.464000000
O    -5.919000000    -2.412000000    -3.323000000
H    -5.520000000    -2.704000000    -2.503000000
H    -6.861000000    -2.480000000    -3.169000000
O     1.743000000    -0.693000000    -5.123000000
H     1.637000000    -0.762000000    -6.072000000
H     0.986000000    -1.154000000    -4.763000000
O    -1.789000000     2.361000000    -3.243000000
H    -2.096000000     1.557000000    -2.824000000
H    -2.410000000     2.513000000    -3.955000000
O     0.780000000     1.951000000     7.579000000
H     0.751000000     2.762000000     7.072000000
H     0.402000000     1.291000000     6.998000000
O    -3.780000000     3.457000000     1.820000000
H    -4.020000000     4.039000000     2.541000000
H    -3.950000000     2.577000000     2.155000000
O    -5.803000000     3.252000000    -1.717000000
H    -6.154000000     2.363000000    -1.772000000
H    -6.542000000     3.816000000    -1.948000000
O     4.649000000     1.821000000     5.627000000
H     4.637000000     2.132000000     6.532000000
H     3.997000000     2.359000000     5.180000000
O    -2.827000000    -5.087000000     0.329000000
H    -2.114000000    -5.713000000     0.202000000
H    -2.418000000    -4.347000000     0.778000000
O     5.198000000    -3.634000000    -0.746000000
H     5.003000000    -3.052000000    -0.012000000
H     5.442000000    -4.464000000    -0.336000000
O     0.721000000    -2.485000000     3.315000000
H     0.262000000    -2.987000000     3.988000000
H     1.180000000    -1.799000000     3.800000000
O    -1.010000000     4.602000000     5.328000000
H    -0.067000000     4.732000000     5.429000000
H    -1.349000000     5.471000000     5.113000000
O     0.152000000     5.102000000     0.485000000
H    -0.785000000     4.951000000     0.613000000
H     0.370000000     4.601000000    -0.300000000
O    -4.405000000    -0.060000000     0.085000000
H    -5.361000000    -0.102000000     0.053000000
H    -4.139000000     0.022000000    -0.830000000
O     0.414000000     3.934000000     3.148000000
H    -0.436000000     4.184000000     3.511000000
H     0.397000000     4.262000000     2.249000000
O     4.834000000     3.019000000    -0.635000000
H     4.102000000     2.466000000    -0.908000000
H     4.813000000     3.760000000    -1.241000000
O    -2.094000000    -0.958000000     3.705000000
H    -1.416000000    -1.056000000     3.036000000
H    -2.445000000    -1.841000000     3.821000000
O    -3.100000000     1.223000000     5.921000000
H    -3.513000000     2.087000000     5.906000000
H    -3.142000000     0.922000000     5.014000000
O    -7.091000000     0.906000000    -3.672000000
H    -7.362000000     0.549000000    -2.827000000
H    -6.210000000     0.556000000    -3.809000000
O     2.816000000     3.429000000     4.214000000
H     3.369000000     3.716000000     3.487000000
H     1.921000000     3.540000000     3.893000000
O    -4.103000000     0.757000000     2.616000000
H    -4.245000000     0.581000000     1.686000000
H    -3.412000000     0.147000000     2.873000000
O    -2.352000000    -6.706000000    -4.366000000
H    -1.457000000    -6.650000000    -4.701000000
H    -2.489000000    -5.876000000    -3.910000000
O     2.129000000    -3.557000000     1.245000000
H     1.665000000    -3.273000000     2.032000000
H     2.766000000    -2.862000000     1.078000000
O     2.625000000     1.678000000    -1.796000000
H     2.953000000     1.370000000    -2.640000000
H     2.323000000     0.885000000    -1.352000000
O    -0.515000000    -6.467000000    -0.094000000
H    -0.113000000    -6.277000000    -0.942000000
H    -0.130000000    -7.302000000     0.172000000
O    -3.474000000     2.131000000    -5.421000000
H    -3.930000000     1.395000000    -5.013000000
H    -4.159000000     2.779000000    -5.581000000
O    -3.775000000     4.848000000    -0.793000000
H    -4.533000000     4.411000000    -1.180000000
H    -3.641000000     4.401000000     0.042000000
O     1.485000000     4.690000000     6.371000000
H     1.471000000     5.591000000     6.046000000
H     2.083000000     4.232000000     5.781000000
O     5.422000000    -1.033000000    -1.644000000
H     5.084000000    -0.960000000    -2.537000000
H     5.326000000    -1.960000000    -1.427000000
O    -0.717000000    -0.005000000     6.518000000
H    -1.528000000     0.495000000     6.419000000
H    -1.006000000    -0.912000000     6.619000000
O     3.798000000     0.731000000    -3.896000000
H     4.553000000     0.160000000    -4.042000000
H     3.049000000     0.221000000    -4.205000000
O     4.153000000     5.988000000     0.800000000
H     4.334000000     5.965000000    -0.139000000
H     4.270000000     5.083000000     1.089000000
O    -3.483000000    -2.635000000    -5.425000000
H    -3.769000000    -2.832000000    -4.533000000
H    -2.606000000    -2.267000000    -5.318000000
O    -1.201000000    -3.178000000     1.237000000
H    -1.018000000    -3.563000000     2.094000000
H    -0.570000000    -2.463000000     1.156000000
O     4.358000000    -1.800000000     1.497000000
H     4.413000000    -2.536000000     2.107000000
H     4.756000000    -1.068000000     1.968000000
O    -2.013000000     5.467000000    -2.576000000
H    -1.694000000     4.684000000    -3.025000000
H    -2.318000000     5.149000000    -1.726000000
O    -1.014000000     0.884000000    -6.428000000
H    -0.219000000     1.416000000    -6.462000000
H    -1.708000000     1.503000000    -6.203000000
O     0.246000000     3.344000000    -1.732000000
H     1.010000000     2.767000000    -1.755000000
H    -0.433000000     2.861000000    -2.203000000
O    -0.856000000    -1.695000000    -5.290000000
H    -0.976000000    -0.906000000    -5.819000000
H    -1.042000000    -1.412000000    -4.394000000
O    -5.528000000    -4.996000000    -2.033000000
H    -5.601000000    -5.936000000    -1.870000000
H    -4.637000000    -4.877000000    -2.360000000
O     4.530000000     3.579000000     2.192000000
H     4.914000000     3.303000000     1.359000000
H     4.456000000     2.772000000     2.700000000
O     0.524000000    -3.434000000    -6.912000000
H     0.736000000    -4.204000000    -6.386000000
H     0.176000000    -2.802000000    -6.283000000
O     3.674000000    -1.676000000     4.322000000
H     2.910000000    -1.178000000     4.615000000
H     4.320000000    -1.009000000     4.091000000
O     2.347000000    -5.524000000    -0.585000000
H     2.113000000    -4.884000000     0.087000000
H     1.810000000    -5.285000000    -1.340000000
