144
-2779.44970
O    -4.815000000    -6.534000000    -0.251000000
H    -4.232000000    -5.999000000    -0.788000000
H    -4.270000000    -6.821000000     0.482000000
O    -5.138000000    -2.166000000    -3.103000000
H    -5.483000000    -2.511000000    -2.279000000
H    -4.297000000    -1.776000000    -2.866000000
O    -2.203000000     4.631000000     2.026000000
H    -2.089000000     4.290000000     1.139000000
H    -2.251000000     3.851000000     2.578000000
O    -4.333000000     0.565000000     1.984000000
H    -3.597000000     0.803000000     1.421000000
H    -5.033000000     1.167000000     1.731000000
O    -4.681000000     3.334000000    -3.212000000
H    -4.093000000     2.747000000    -2.737000000
H    -4.164000000     3.642000000    -3.956000000
O    -2.334000000    -3.077000000     3.986000000
H    -2.527000000    -3.580000000     3.195000000
H    -1.465000000    -3.377000000     4.254000000
O     4.721000000    -0.359000000     4.389000000
H     5.284000000    -0.478000000     5.154000000
H     3.831000000    -0.442000000     4.731000000
O    -0.067000000     6.208000000     2.139000000
H    -0.892000000     5.721000000     2.144000000
H     0.283000000     6.095000000     3.023000000
O     3.060000000     1.308000000    -5.240000000
H     2.946000000     1.046000000    -6.154000000
H     3.216000000     0.486000000    -4.774000000
O     7.172000000    -0.319000000     0.402000000
H     6.815000000     0.545000000     0.607000000
H     6.420000000    -0.821000000     0.089000000
O     0.598000000    -1.281000000    -5.496000000
H    -0.042000000    -1.988000000    -5.420000000
H     1.262000000    -1.622000000    -6.096000000
O     3.512000000     2.850000000     4.074000000
H     3.859000000     3.045000000     4.944000000
H     2.926000000     2.106000000     4.211000000
O    -5.560000000    -1.697000000     2.699000000
H    -5.002000000    -0.931000000     2.563000000
H    -5.340000000    -2.284000000     1.975000000
O    -2.650000000    -3.877000000     1.143000000
H    -2.317000000    -4.362000000     0.388000000
H    -2.922000000    -3.032000000     0.785000000
O    -2.650000000    -0.901000000     5.663000000
H    -2.180000000    -1.464000000     5.048000000
H    -3.211000000    -1.500000000     6.155000000
O     4.228000000     5.914000000     3.396000000
H     5.150000000     6.148000000     3.503000000
H     4.162000000     5.030000000     3.758000000
O     1.872000000     0.521000000     4.630000000
H     1.483000000     0.159000000     5.425000000
H     1.147000000     0.959000000     4.185000000
O    -2.631000000     1.407000000    -3.646000000
H    -1.799000000     1.155000000    -4.047000000
H    -2.996000000     0.586000000    -3.315000000
O    -3.751000000     1.272000000    -0.878000000
H    -4.697000000     1.391000000    -0.793000000
H    -3.655000000     0.530000000    -1.475000000
O     6.001000000     1.939000000     3.039000000
H     5.404000000     2.642000000     3.295000000
H     5.641000000     1.156000000     3.456000000
O     0.802000000    -0.865000000     6.659000000
H     1.448000000    -1.543000000     6.857000000
H     0.113000000    -0.993000000     7.311000000
O    -1.678000000     2.808000000     0.126000000
H    -2.354000000     2.254000000    -0.264000000
H    -0.983000000     2.198000000     0.376000000
O    -7.244000000    -4.232000000    -0.957000000
H    -6.499000000    -4.806000000    -1.134000000
H    -6.849000000    -3.392000000    -0.723000000
O    -0.233000000    -5.123000000     3.825000000
H     0.196000000    -5.466000000     3.041000000
H    -1.032000000    -5.644000000     3.908000000
O     3.525000000     3.996000000    -3.911000000
H     4.377000000     4.219000000    -3.536000000
H     3.673000000     3.166000000    -4.364000000
O     3.858000000    -2.379000000     2.895000000
H     4.701000000    -2.718000000     3.194000000
H     3.965000000    -1.427000000     2.909000000
O     2.836000000    -1.120000000    -3.896000000
H     1.944000000    -1.216000000    -4.231000000
H     2.790000000    -1.446000000    -2.997000000
O    -1.925000000     4.464000000    -3.082000000
H    -1.162000000     4.335000000    -2.518000000
H    -2.052000000     3.618000000    -3.511000000
O    -0.022000000     1.339000000    -4.786000000
H     0.167000000     0.401000000    -4.804000000
H     0.783000000     1.740000000    -4.459000000
O    -0.652000000     2.186000000     3.524000000
H    -0.488000000     2.023000000     4.452000000
H    -0.342000000     3.080000000     3.378000000
O    -5.895000000    -3.206000000    -5.507000000
H    -5.679000000    -2.764000000    -4.686000000
H    -5.462000000    -2.683000000    -6.182000000
O     4.593000000     1.487000000    -1.782000000
H     4.151000000     1.118000000    -1.018000000
H     4.225000000     2.366000000    -1.870000000
O     2.127000000    -2.330000000    -1.516000000
H     1.824000000    -1.788000000    -0.789000000
H     1.349000000    -2.814000000    -1.794000000
O    -5.888000000    -1.848000000    -0.435000000
H    -6.090000000    -0.914000000    -0.493000000
H    -4.932000000    -1.885000000    -0.405000000
O     1.227000000     5.048000000    -0.087000000
H     1.950000000     4.721000000     0.448000000
H     0.961000000     5.862000000     0.342000000
O    -2.133000000    -3.879000000    -6.536000000
H    -2.305000000    -3.356000000    -5.753000000
H    -2.152000000    -4.785000000    -6.228000000
O    -3.983000000     1.548000000    -6.220000000
H    -3.889000000     1.547000000    -5.268000000
H    -3.132000000     1.841000000    -6.545000000
O     2.376000000    -3.509000000     4.739000000
H     2.647000000    -2.905000000     4.048000000
H     1.485000000    -3.762000000     4.501000000
O    -3.826000000     1.439000000     4.802000000
H    -3.835000000     1.353000000     3.849000000
H    -3.494000000     0.598000000     5.116000000
O     0.142000000    -3.979000000    -1.912000000
H    -0.409000000    -4.145000000    -1.147000000
H     0.264000000    -4.840000000    -2.311000000
O     7.348000000     2.860000000     0.192000000
H     7.376000000     3.814000000     0.271000000
H     6.706000000     2.585000000     0.847000000
O    -3.681000000    -4.491000000    -1.900000000
H    -3.520000000    -3.655000000    -1.462000000
H    -3.386000000    -4.351000000    -2.799000000
O    -1.366000000     2.153000000    -7.067000000
H    -0.800000000     2.722000000    -7.588000000
H    -0.778000000     1.750000000    -6.428000000
O    -4.680000000    -4.710000000     3.086000000
H    -4.260000000    -4.040000000     2.545000000
H    -4.347000000    -5.539000000     2.743000000
O     3.417000000     4.133000000     1.355000000
H     3.104000000     3.472000000     1.973000000
H     3.586000000     4.905000000     1.895000000
O    -1.480000000    -2.675000000    -4.100000000
H    -1.013000000    -3.332000000    -3.584000000
H    -1.815000000    -2.055000000    -3.452000000
O     1.101000000     4.046000000    -2.765000000
H     1.221000000     4.149000000    -1.821000000
H     1.991000000     4.004000000    -3.115000000
O    -1.324000000    -5.615000000    -0.188000000
H    -1.570000000    -6.343000000    -0.760000000
H    -0.894000000    -6.032000000     0.559000000
