144
-2807.32840
O     5.612000000     0.222000000    -0.963000000
H     5.165000000     0.940000000    -1.412000000
H     6.458000000     0.152000000    -1.405000000
O    -1.520000000    -1.767000000    -5.586000000
H    -2.227000000    -2.410000000    -5.539000000
H    -1.938000000    -0.976000000    -5.927000000
O     6.780000000    -2.172000000     1.758000000
H     6.916000000    -1.978000000     2.686000000
H     6.568000000    -1.325000000     1.366000000
O    -3.417000000     1.054000000    -3.509000000
H    -3.693000000     0.929000000    -4.417000000
H    -3.507000000     0.189000000    -3.110000000
O    -0.940000000     1.289000000     5.266000000
H    -0.137000000     0.772000000     5.201000000
H    -1.472000000     0.825000000     5.913000000
O    -2.851000000     5.342000000     1.105000000
H    -3.145000000     4.483000000     0.803000000
H    -2.959000000     5.914000000     0.345000000
O    -4.338000000    -1.428000000     3.846000000
H    -4.559000000    -1.910000000     3.049000000
H    -4.472000000    -2.060000000     4.552000000
O     1.875000000    -2.298000000     2.672000000
H     1.401000000    -1.957000000     1.913000000
H     2.675000000    -1.774000000     2.711000000
O    -3.218000000     1.121000000     3.678000000
H    -3.437000000     0.218000000     3.908000000
H    -2.519000000     1.360000000     4.286000000
O     2.427000000     3.862000000    -2.240000000
H     1.645000000     3.311000000    -2.273000000
H     2.307000000     4.404000000    -1.460000000
O     0.155000000     4.017000000     4.355000000
H     1.100000000     3.982000000     4.503000000
H    -0.161000000     3.152000000     4.615000000
O    -2.833000000     3.214000000    -0.565000000
H    -3.317000000     3.450000000    -1.357000000
H    -3.015000000     2.283000000    -0.440000000
O     1.671000000    -2.237000000    -5.582000000
H     2.050000000    -1.545000000    -5.041000000
H     2.361000000    -2.454000000    -6.210000000
O    -6.321000000    -0.741000000     0.494000000
H    -5.490000000    -0.477000000     0.100000000
H    -6.092000000    -0.997000000     1.388000000
O    -3.180000000    -2.955000000    -3.101000000
H    -4.124000000    -3.077000000    -3.002000000
H    -2.999000000    -2.120000000    -2.671000000
O    -4.882000000     1.899000000     1.876000000
H    -4.301000000     1.797000000     2.630000000
H    -4.473000000     1.376000000     1.187000000
O     1.243000000    -0.300000000     4.944000000
H     1.250000000    -0.359000000     3.988000000
H     2.120000000     0.007000000     5.171000000
O    -1.358000000     2.548000000    -4.805000000
H    -1.200000000     3.122000000    -4.056000000
H    -1.949000000     1.874000000    -4.470000000
O     3.639000000    -0.696000000    -4.441000000
H     4.151000000    -1.230000000    -5.048000000
H     4.003000000     0.184000000    -4.530000000
O    -1.294000000    -3.814000000     1.805000000
H    -0.991000000    -4.432000000     1.140000000
H    -1.634000000    -3.071000000     1.306000000
O    -0.241000000     5.947000000     2.415000000
H    -1.138000000     5.765000000     2.136000000
H    -0.004000000     5.200000000     2.965000000
O    -2.443000000    -4.746000000    -1.105000000
H    -2.318000000    -5.575000000    -1.568000000
H    -2.699000000    -4.127000000    -1.789000000
O     4.721000000    -3.942000000     2.218000000
H     5.216000000    -3.135000000     2.080000000
H     3.876000000    -3.649000000     2.559000000
O    -5.423000000    -0.134000000    -5.828000000
H    -5.161000000    -0.261000000    -6.740000000
H    -5.529000000    -1.021000000    -5.484000000
O     2.748000000     4.668000000     1.040000000
H     2.417000000     4.477000000     1.918000000
H     3.646000000     4.336000000     1.045000000
O    -3.914000000     3.659000000    -3.231000000
H    -3.700000000     3.927000000    -4.124000000
H    -3.624000000     2.748000000    -3.179000000
O    -0.968000000     4.789000000    -1.936000000
H    -0.370000000     4.044000000    -1.869000000
H    -1.606000000     4.647000000    -1.237000000
O    -4.879000000    -3.010000000     1.863000000
H    -4.509000000    -3.892000000     1.820000000
H    -5.810000000    -3.133000000     1.676000000
O     4.043000000    -1.055000000     3.551000000
H     4.195000000    -1.205000000     4.484000000
H     4.625000000    -0.328000000     3.327000000
O     3.232000000    -5.365000000     0.089000000
H     3.887000000    -4.725000000     0.368000000
H     3.448000000    -5.546000000    -0.826000000
O    -0.213000000    -3.849000000    -4.219000000
H    -0.905000000    -3.244000000    -4.488000000
H     0.600000000    -3.399000000    -4.448000000
O     6.626000000    -3.495000000    -2.456000000
H     6.268000000    -4.327000000    -2.767000000
H     5.864000000    -3.009000000    -2.142000000
O     0.460000000     2.200000000    -1.990000000
H     0.518000000     1.403000000    -2.516000000
H     0.211000000     1.893000000    -1.118000000
O    -5.959000000     1.470000000    -1.628000000
H    -5.228000000     1.149000000    -1.099000000
H    -6.054000000     2.388000000    -1.373000000
O     5.800000000     2.290000000     3.972000000
H     6.708000000     2.046000000     4.154000000
H     5.867000000     3.105000000     3.475000000
O    -6.958000000     1.066000000    -3.909000000
H    -6.588000000     0.949000000    -3.034000000
H    -6.218000000     0.931000000    -4.501000000
O     2.887000000     4.236000000     4.403000000
H     3.511000000     4.862000000     4.772000000
H     3.315000000     3.386000000     4.502000000
O     4.255000000    -2.184000000    -2.081000000
H     3.939000000    -1.888000000    -2.935000000
H     4.602000000    -1.394000000    -1.667000000
O     5.941000000     0.322000000     2.033000000
H     5.669000000     0.492000000     1.131000000
H     5.914000000     1.180000000     2.456000000
O    -6.686000000    -2.876000000    -4.599000000
H    -7.035000000    -3.693000000    -4.241000000
H    -6.424000000    -2.370000000    -3.830000000
O     0.298000000     0.252000000    -3.944000000
H     0.345000000    -0.682000000    -4.150000000
H     0.883000000     0.666000000    -4.579000000
O    -5.910000000     3.675000000     0.130000000
H    -5.988000000     4.559000000     0.487000000
H    -5.474000000     3.175000000     0.820000000
O     5.261000000     3.662000000     0.095000000
H     5.469000000     2.983000000    -0.545000000
H     5.976000000     3.620000000     0.730000000
O     3.530000000     1.321000000     5.311000000
H     4.360000000     1.597000000     4.922000000
H     3.663000000     1.417000000     6.254000000
O    -8.610000000     0.597000000    -0.052000000
H    -8.557000000     1.338000000     0.552000000
H    -7.698000000     0.359000000    -0.218000000
O     0.406000000    -5.466000000    -2.109000000
H     0.190000000    -4.840000000    -2.800000000
H     1.325000000    -5.685000000    -2.264000000
O    -5.673000000    -1.679000000    -2.505000000
H    -6.301000000    -1.548000000    -1.794000000
H    -4.830000000    -1.422000000    -2.130000000
O     4.917000000     2.310000000    -2.389000000
H     5.409000000     2.660000000    -3.132000000
H     4.110000000     2.825000000    -2.373000000
