144
-2812.93669
O    -1.858000000     5.177000000     2.348000000
H    -1.476000000     4.900000000     1.515000000
H    -2.778000000     4.922000000     2.287000000
O    -7.417000000    -2.134000000    -3.771000000
H    -6.558000000    -1.903000000    -4.126000000
H    -7.328000000    -3.050000000    -3.505000000
O    -3.118000000    -0.141000000    -3.339000000
H    -3.938000000    -0.576000000    -3.573000000
H    -2.803000000    -0.619000000    -2.572000000
O    -0.966000000     1.455000000     4.295000000
H    -0.109000000     1.874000000     4.373000000
H    -0.769000000     0.552000000     4.046000000
O    -0.970000000     4.227000000     0.088000000
H    -0.583000000     4.690000000    -0.656000000
H    -0.531000000     3.377000000     0.095000000
O    -4.422000000    -2.320000000     3.042000000
H    -4.201000000    -1.849000000     2.239000000
H    -3.593000000    -2.384000000     3.517000000
O     5.714000000    -3.486000000     2.838000000
H     5.973000000    -4.239000000     2.307000000
H     5.687000000    -2.755000000     2.220000000
O    -4.112000000    -6.790000000    -2.054000000
H    -3.760000000    -5.994000000    -1.655000000
H    -4.608000000    -7.211000000    -1.352000000
O    -1.207000000     4.467000000     4.932000000
H    -1.060000000     3.523000000     4.863000000
H    -1.337000000     4.755000000     4.028000000
O    -3.920000000     2.093000000     4.823000000
H    -3.070000000     1.908000000     4.424000000
H    -4.426000000     1.291000000     4.692000000
O    -4.271000000     2.220000000    -4.159000000
H    -3.880000000     1.386000000    -3.898000000
H    -3.992000000     2.838000000    -3.484000000
O     5.386000000    -1.669000000    -1.272000000
H     5.818000000    -1.510000000    -0.432000000
H     4.515000000    -1.988000000    -1.036000000
O    -5.343000000    -3.322000000    -2.156000000
H    -5.613000000    -2.929000000    -1.326000000
H    -4.452000000    -3.000000000    -2.294000000
O    -5.403000000     3.681000000    -0.146000000
H    -5.347000000     4.400000000     0.484000000
H    -4.871000000     2.984000000     0.237000000
O     3.413000000     0.226000000     4.959000000
H     3.782000000     1.055000000     4.655000000
H     3.566000000     0.228000000     5.904000000
O     2.824000000     1.998000000    -3.578000000
H     2.395000000     2.704000000    -3.094000000
H     2.196000000     1.759000000    -4.260000000
O     5.332000000     1.516000000    -2.171000000
H     5.721000000     0.753000000    -2.599000000
H     4.400000000     1.458000000    -2.380000000
O     3.611000000    -0.893000000    -5.905000000
H     4.082000000    -0.082000000    -5.710000000
H     3.935000000    -1.519000000    -5.258000000
O    -0.550000000    -4.062000000     0.618000000
H    -0.111000000    -3.709000000     1.391000000
H     0.104000000    -4.627000000     0.207000000
O     0.782000000    -1.002000000     4.515000000
H     1.713000000    -0.895000000     4.321000000
H     0.674000000    -0.622000000     5.387000000
O     1.359000000     5.472000000     3.967000000
H     1.599000000     4.988000000     4.758000000
H     2.196000000     5.729000000     3.580000000
O     1.103000000    -5.741000000    -0.710000000
H     0.575000000    -6.526000000    -0.858000000
H     1.182000000    -5.339000000    -1.575000000
O     3.504000000    -3.670000000    -0.084000000
H     3.938000000    -4.520000000    -0.005000000
H     2.984000000    -3.741000000    -0.884000000
O    -6.836000000    -5.058000000    -3.465000000
H    -6.219000000    -4.697000000    -2.828000000
H    -7.359000000    -5.683000000    -2.964000000
O    -6.898000000     1.957000000     2.763000000
H    -7.015000000     2.870000000     3.028000000
H    -6.096000000     1.960000000     2.242000000
O    -6.640000000    -5.016000000     0.967000000
H    -7.537000000    -5.076000000     0.639000000
H    -6.302000000    -4.203000000     0.593000000
O     3.015000000     5.033000000    -0.547000000
H     2.760000000     5.939000000    -0.372000000
H     2.385000000     4.728000000    -1.199000000
O     0.522000000    -3.493000000     3.316000000
H     0.720000000    -4.001000000     4.103000000
H     0.478000000    -2.586000000     3.621000000
O    -7.723000000    -0.496000000     2.021000000
H    -7.369000000     0.327000000     2.358000000
H    -8.531000000    -0.244000000     1.573000000
O     4.757000000    -2.482000000    -3.689000000
H     5.000000000    -2.128000000    -2.834000000
H     5.356000000    -3.215000000    -3.824000000
O     1.405000000     2.637000000     4.016000000
H     2.361000000     2.637000000     3.971000000
H     1.158000000     3.547000000     3.854000000
O     5.071000000     3.393000000     0.997000000
H     4.426000000     3.784000000     0.407000000
H     5.335000000     2.583000000     0.560000000
O    -4.838000000     1.194000000     1.166000000
H    -4.404000000     0.348000000     1.273000000
H    -5.284000000     1.129000000     0.321000000
O     2.861000000    -4.343000000    -2.885000000
H     3.320000000    -3.618000000    -3.309000000
H     3.197000000    -5.127000000    -3.320000000
O     6.910000000     5.113000000     1.616000000
H     6.025000000     4.753000000     1.558000000
H     7.420000000     4.428000000     2.049000000
O     4.488000000     3.702000000     3.611000000
H     4.607000000     3.402000000     2.710000000
H     5.139000000     3.213000000     4.114000000
O    -6.170000000    -0.177000000    -1.631000000
H    -6.136000000    -0.915000000    -1.022000000
H    -6.872000000    -0.402000000    -2.241000000
O     1.177000000     3.955000000    -2.592000000
H     1.112000000     4.714000000    -3.171000000
H     0.407000000     3.427000000    -2.801000000
O     6.751000000    -1.249000000     1.405000000
H     7.509000000    -1.731000000     1.735000000
H     7.121000000    -0.604000000     0.803000000
O     6.878000000    -0.408000000     4.184000000
H     7.193000000    -1.223000000     4.573000000
H     6.906000000    -0.566000000     3.240000000
O     4.978000000     1.791000000    -5.183000000
H     4.268000000     1.960000000    -4.564000000
H     5.750000000     2.185000000    -4.775000000
O    -0.913000000     1.751000000    -2.602000000
H    -0.384000000     1.266000000    -1.968000000
H    -1.335000000     1.073000000    -3.130000000
O    -4.518000000    -5.238000000     3.151000000
H    -4.502000000    -4.286000000     3.060000000
H    -5.226000000    -5.522000000     2.572000000
O    -2.119000000    -2.882000000     4.276000000
H    -1.283000000    -2.700000000     3.846000000
H    -2.098000000    -2.354000000     5.074000000
O     3.653000000    -2.421000000     4.560000000
H     3.889000000    -1.519000000     4.776000000
H     4.181000000    -2.630000000     3.790000000
O    -2.009000000    -4.454000000    -2.016000000
H    -1.605000000    -4.673000000    -1.176000000
H    -2.558000000    -3.694000000    -1.826000000
O    -6.122000000    -2.235000000     0.251000000
H    -6.606000000    -1.772000000     0.935000000
H    -5.203000000    -2.044000000     0.437000000
O     7.816000000     0.486000000    -0.269000000
H     8.072000000     1.402000000    -0.160000000
H     7.121000000     0.508000000    -0.928000000
