144
-2834.70735
O    -1.143000000    -3.319000000    -3.951000000
H    -0.250000000    -3.599000000    -4.148000000
H    -1.222000000    -3.421000000    -3.002000000
O    -0.902000000    -5.698000000     1.771000000
H     0.007000000    -5.399000000     1.730000000
H    -1.410000000    -4.899000000     1.911000000
O     1.999000000    -5.407000000     2.416000000
H     2.422000000    -4.727000000     2.940000000
H     1.901000000    -5.014000000     1.548000000
O     0.888000000     0.859000000     4.704000000
H     0.280000000     0.177000000     4.988000000
H     1.374000000     0.461000000     3.982000000
O     0.420000000     3.623000000    -3.077000000
H     1.267000000     4.028000000    -2.891000000
H    -0.007000000     3.557000000    -2.223000000
O    -3.483000000    -0.189000000     3.448000000
H    -4.175000000    -0.823000000     3.263000000
H    -3.948000000     0.591000000     3.752000000
O    -0.377000000    -5.800000000    -2.949000000
H    -0.980000000    -6.282000000    -2.383000000
H    -0.125000000    -5.034000000    -2.433000000
O    -2.862000000    -5.759000000    -1.401000000
H    -2.564000000    -4.962000000    -0.962000000
H    -3.609000000    -5.477000000    -1.929000000
O     1.559000000    -3.531000000    -4.738000000
H     1.249000000    -3.313000000    -5.617000000
H     2.090000000    -4.318000000    -4.859000000
O    -0.442000000    -2.522000000     3.340000000
H    -0.984000000    -1.934000000     3.866000000
H     0.062000000    -1.938000000     2.772000000
O    -3.495000000    -3.307000000     4.548000000
H    -4.108000000    -2.573000000     4.585000000
H    -3.441000000    -3.528000000     3.619000000
O     4.689000000     3.100000000     1.122000000
H     3.984000000     3.728000000     0.965000000
H     5.432000000     3.637000000     1.396000000
O    -2.521000000    -8.297000000    -0.519000000
H    -1.742000000    -8.185000000     0.024000000
H    -2.549000000    -7.510000000    -1.063000000
O     4.258000000     0.003000000     1.070000000
H     5.124000000    -0.042000000     1.477000000
H     4.122000000     0.935000000     0.900000000
O     2.963000000     4.066000000     3.609000000
H     2.312000000     4.241000000     2.929000000
H     3.776000000     3.912000000     3.129000000
O     3.667000000    -2.330000000    -3.464000000
H     4.231000000    -3.103000000    -3.489000000
H     2.805000000    -2.654000000    -3.724000000
O    -3.350000000    -4.488000000    -4.873000000
H    -3.629000000    -3.891000000    -5.568000000
H    -2.557000000    -4.087000000    -4.517000000
O    -1.949000000     4.274000000     1.864000000
H    -2.785000000     4.198000000     2.325000000
H    -1.574000000     3.395000000     1.901000000
O    -4.810000000    -3.897000000    -2.577000000
H    -5.765000000    -3.966000000    -2.603000000
H    -4.550000000    -3.835000000    -3.496000000
O    -1.469000000    -0.184000000     5.211000000
H    -1.855000000     0.438000000     5.828000000
H    -2.178000000    -0.388000000     4.601000000
O    -4.199000000     2.251000000     1.560000000
H    -3.596000000     2.242000000     0.817000000
H    -4.172000000     1.357000000     1.902000000
O     2.947000000     5.372000000    -2.132000000
H     2.843000000     5.551000000    -1.197000000
H     3.247000000     6.202000000    -2.503000000
O     4.228000000     2.551000000    -2.120000000
H     3.851000000     3.431000000    -2.099000000
H     5.054000000     2.632000000    -1.643000000
O     1.966000000     3.120000000     6.042000000
H     2.403000000     3.757000000     5.475000000
H     1.378000000     2.643000000     5.456000000
O    -2.303000000     4.487000000    -1.423000000
H    -2.662000000     3.612000000    -1.576000000
H    -2.659000000     4.746000000    -0.573000000
O     0.349000000     7.179000000     3.975000000
H     0.494000000     6.343000000     3.532000000
H     0.097000000     7.781000000     3.275000000
O     3.600000000    -2.442000000    -0.264000000
H     3.796000000    -1.600000000     0.148000000
H     4.231000000    -2.511000000    -0.980000000
O     3.705000000     0.544000000    -4.007000000
H     3.633000000     0.916000000    -3.128000000
H     4.084000000    -0.324000000    -3.870000000
O     0.828000000     1.106000000    -4.170000000
H     1.743000000     0.895000000    -3.984000000
H     0.738000000     2.024000000    -3.917000000
O     4.867000000     2.754000000    -5.125000000
H     4.402000000     2.152000000    -4.545000000
H     5.208000000     3.433000000    -4.543000000
O    -5.147000000    -2.640000000     0.171000000
H    -5.550000000    -3.390000000    -0.266000000
H    -4.224000000    -2.685000000    -0.079000000
O    -0.440000000     7.384000000    -1.188000000
H    -0.661000000     6.751000000    -1.872000000
H    -1.226000000     7.923000000    -1.098000000
O     4.112000000     1.095000000     4.023000000
H     4.194000000     1.691000000     4.767000000
H     3.880000000     1.661000000     3.287000000
O     0.066000000     6.117000000     1.208000000
H    -0.687000000     5.553000000     1.384000000
H    -0.066000000     6.419000000     0.310000000
O     5.918000000    -1.753000000    -1.474000000
H     6.757000000    -2.102000000    -1.176000000
H     6.148000000    -1.137000000    -2.170000000
O     2.833000000     5.302000000     0.827000000
H     2.000000000     5.748000000     0.977000000
H     3.491000000     5.896000000     1.189000000
O    -3.318000000    -3.966000000     1.893000000
H    -2.861000000    -3.377000000     1.292000000
H    -3.778000000    -4.581000000     1.323000000
O    -1.439000000     2.826000000     4.499000000
H    -0.934000000     3.553000000     4.864000000
H    -0.784000000     2.160000000     4.291000000
O     1.586000000    -0.639000000     2.546000000
H     1.294000000    -0.529000000     1.641000000
H     2.541000000    -0.601000000     2.496000000
O    -7.612000000    -1.375000000    -0.353000000
H    -7.629000000    -1.264000000    -1.304000000
H    -6.768000000    -1.789000000    -0.176000000
O    -3.796000000     1.962000000    -1.388000000
H    -3.640000000     1.042000000    -1.605000000
H    -4.722000000     2.101000000    -1.587000000
O    -4.567000000     2.094000000     4.813000000
H    -4.981000000     2.953000000     4.730000000
H    -3.666000000     2.232000000     4.519000000
O    -3.606000000    -0.676000000    -1.671000000
H    -3.181000000    -1.497000000    -1.427000000
H    -3.592000000    -0.674000000    -2.628000000
O     1.761000000    -4.449000000    -0.015000000
H     1.100000000    -4.155000000    -0.641000000
H     2.445000000    -3.781000000    -0.057000000
O    -5.601000000    -1.794000000     2.642000000
H    -5.541000000    -2.086000000     1.732000000
H    -5.870000000    -2.574000000     3.127000000
O    -1.753000000    -0.404000000    -4.341000000
H    -1.651000000    -1.345000000    -4.199000000
H    -0.927000000    -0.025000000    -4.042000000
O    -0.549000000    -7.357000000    -5.175000000
H    -0.913000000    -6.764000000    -5.832000000
H    -0.494000000    -6.827000000    -4.379000000
O     2.179000000    -7.209000000    -0.469000000
H     2.868000000    -7.338000000     0.182000000
H     2.077000000    -6.259000000    -0.524000000
