144
-2790.23514
O    -0.704000000    -4.130000000    -3.521000000
H     0.071000000    -3.568000000    -3.528000000
H    -1.111000000    -3.967000000    -2.671000000
O    -2.134000000    -7.289000000     0.774000000
H    -1.773000000    -6.529000000     0.317000000
H    -2.661000000    -6.917000000     1.480000000
O    -1.105000000    -4.765000000     2.364000000
H    -1.794000000    -4.112000000     2.491000000
H    -1.062000000    -5.233000000     3.198000000
O    -3.464000000    -2.806000000    -3.736000000
H    -2.746000000    -2.968000000    -3.124000000
H    -4.239000000    -3.153000000    -3.294000000
O     0.737000000     1.065000000     6.380000000
H     1.037000000     1.660000000     5.693000000
H     1.541000000     0.691000000     6.741000000
O     3.504000000     5.764000000    -3.098000000
H     4.245000000     6.318000000    -3.345000000
H     3.628000000     5.602000000    -2.163000000
O    -0.487000000    -4.939000000    -0.338000000
H    -0.630000000    -4.768000000     0.593000000
H    -1.196000000    -4.471000000    -0.779000000
O    -0.282000000    -0.426000000     4.324000000
H     0.107000000     0.125000000     5.003000000
H     0.301000000    -1.183000000     4.266000000
O     4.705000000     2.540000000    -5.142000000
H     5.327000000     2.043000000    -5.673000000
H     4.537000000     1.980000000    -4.384000000
O     1.945000000     4.405000000     3.226000000
H     1.946000000     4.625000000     2.294000000
H     2.081000000     5.242000000     3.670000000
O     2.436000000     2.092000000     4.411000000
H     3.267000000     1.904000000     3.974000000
H     2.208000000     2.975000000     4.121000000
O    -3.941000000    -0.019000000    -3.787000000
H    -3.825000000    -0.968000000    -3.824000000
H    -3.054000000     0.327000000    -3.686000000
O     4.031000000    -2.170000000    -2.774000000
H     4.734000000    -1.835000000    -2.217000000
H     3.928000000    -3.083000000    -2.506000000
O    -4.225000000    -4.721000000    -0.564000000
H    -4.769000000    -4.085000000    -0.100000000
H    -3.417000000    -4.247000000    -0.760000000
O    -1.991000000     3.965000000     0.527000000
H    -2.446000000     3.375000000     1.127000000
H    -1.863000000     3.447000000    -0.268000000
O    -3.193000000     2.239000000     4.946000000
H    -2.361000000     2.157000000     4.480000000
H    -3.007000000     2.844000000     5.664000000
O    -0.146000000    -0.606000000    -6.840000000
H    -0.562000000    -1.343000000    -6.393000000
H     0.793000000    -0.752000000    -6.721000000
O     5.971000000     3.442000000     0.396000000
H     5.409000000     4.192000000     0.201000000
H     6.253000000     3.583000000     1.300000000
O     4.722000000     0.695000000    -0.243000000
H     5.364000000     1.145000000     0.308000000
H     4.216000000     0.160000000     0.368000000
O     1.430000000    -2.506000000    -4.054000000
H     1.461000000    -2.021000000    -4.878000000
H     2.215000000    -2.227000000    -3.582000000
O     6.294000000    -0.892000000     2.012000000
H     6.468000000    -1.392000000     2.810000000
H     7.106000000    -0.413000000     1.848000000
O     7.053000000     3.245000000    -2.279000000
H     7.054000000     4.193000000    -2.151000000
H     6.417000000     2.918000000    -1.644000000
O    -6.150000000    -0.415000000     2.122000000
H    -6.544000000     0.131000000     1.442000000
H    -5.669000000     0.200000000     2.675000000
O    -0.273000000     2.863000000     4.046000000
H     0.159000000     3.579000000     3.580000000
H     0.444000000     2.364000000     4.437000000
O     1.847000000    -2.230000000     4.571000000
H     2.535000000    -1.584000000     4.415000000
H     1.476000000    -2.399000000     3.705000000
O     4.160000000     1.003000000    -3.074000000
H     4.478000000     0.783000000    -2.198000000
H     3.663000000     0.232000000    -3.349000000
O     0.583000000     2.295000000    -3.140000000
H     1.441000000     2.284000000    -2.715000000
H     0.710000000     2.833000000    -3.921000000
O    -3.515000000    -7.306000000    -1.769000000
H    -4.281000000    -7.806000000    -1.488000000
H    -3.466000000    -6.576000000    -1.152000000
O     4.941000000     5.835000000     0.242000000
H     5.744000000     6.090000000     0.696000000
H     4.271000000     6.421000000     0.594000000
O    -5.928000000    -2.237000000     0.100000000
H    -4.971000000    -2.254000000     0.109000000
H    -6.164000000    -1.643000000     0.813000000
O    -4.102000000    -5.661000000    -5.346000000
H    -4.646000000    -5.928000000    -4.605000000
H    -3.367000000    -5.195000000    -4.949000000
O     0.496000000     5.094000000    -1.730000000
H     0.393000000     4.151000000    -1.860000000
H     0.043000000     5.489000000    -2.475000000
O    -1.615000000    -2.803000000    -5.815000000
H    -1.462000000    -3.203000000    -4.959000000
H    -2.477000000    -2.393000000    -5.738000000
O     4.207000000    -0.747000000     4.572000000
H     4.684000000    -1.524000000     4.281000000
H     4.635000000    -0.020000000     4.120000000
O     1.348000000     5.362000000     0.878000000
H     1.073000000     5.232000000    -0.030000000
H     1.762000000     6.225000000     0.881000000
O    -3.387000000    -3.069000000     2.387000000
H    -3.450000000    -3.156000000     1.436000000
H    -4.056000000    -3.663000000     2.727000000
O    -8.300000000    -2.910000000    -0.856000000
H    -8.137000000    -2.754000000    -1.786000000
H    -7.462000000    -2.726000000    -0.431000000
O    -1.314000000     0.218000000    -4.034000000
H    -0.784000000     0.863000000    -3.566000000
H    -0.968000000     0.225000000    -4.926000000
O    -3.806000000    -0.593000000     3.616000000
H    -3.926000000    -1.463000000     3.236000000
H    -2.870000000    -0.417000000     3.518000000
O     0.378000000    -6.733000000    -3.984000000
H    -0.353000000    -7.302000000    -4.224000000
H    -0.027000000    -5.882000000    -3.817000000
O    -4.555000000     0.375000000    -1.044000000
H    -4.315000000    -0.384000000    -0.512000000
H    -4.613000000     0.034000000    -1.936000000
O     5.345000000     1.822000000     3.542000000
H     6.015000000     1.450000000     2.969000000
H     5.584000000     2.745000000     3.622000000
O     1.057000000    -2.270000000     2.069000000
H     0.596000000    -1.441000000     1.941000000
H     0.906000000    -2.756000000     1.258000000
O    -5.529000000     2.002000000     3.410000000
H    -5.016000000     2.070000000     2.604000000
H    -4.875000000     1.920000000     4.104000000
O    -1.827000000     2.423000000    -1.831000000
H    -1.758000000     1.617000000    -1.319000000
H    -1.211000000     2.301000000    -2.554000000
O    -0.969000000     5.440000000     2.681000000
H    -1.288000000     4.843000000     2.004000000
H    -0.499000000     6.120000000     2.198000000
O     0.876000000    -7.406000000    -1.508000000
H     0.779000000    -7.307000000    -2.455000000
H     0.165000000    -6.882000000    -1.139000000
O    -4.429000000     2.519000000     0.896000000
H    -4.212000000     2.044000000     0.094000000
H    -5.179000000     3.064000000     0.656000000
