144
-2781.99689
O    -3.874000000    -3.652000000     4.961000000
H    -4.777000000    -3.350000000     5.061000000
H    -3.765000000    -3.771000000     4.018000000
O    -5.838000000    -0.564000000    -2.749000000
H    -5.223000000    -0.646000000    -2.020000000
H    -6.657000000    -0.930000000    -2.413000000
O    -3.149000000     0.993000000    -2.704000000
H    -3.977000000     1.467000000    -2.773000000
H    -3.315000000     0.313000000    -2.051000000
O     1.129000000     1.563000000     5.428000000
H     1.370000000     0.738000000     5.008000000
H     0.715000000     2.074000000     4.732000000
O     0.663000000     3.746000000     2.977000000
H     0.995000000     4.591000000     3.282000000
H     0.143000000     3.959000000     2.202000000
O     0.068000000    -4.266000000     5.313000000
H    -0.215000000    -3.745000000     6.064000000
H    -0.394000000    -3.883000000     4.567000000
O    -3.651000000    -3.461000000     2.153000000
H    -4.587000000    -3.656000000     2.133000000
H    -3.558000000    -2.675000000     1.614000000
O     5.851000000    -3.558000000    -1.679000000
H     6.336000000    -3.862000000    -2.446000000
H     5.791000000    -2.610000000    -1.794000000
O    -2.603000000    -1.356000000     5.913000000
H    -2.955000000    -2.245000000     5.973000000
H    -2.908000000    -1.034000000     5.065000000
O     3.223000000     0.041000000    -5.027000000
H     3.714000000    -0.739000000    -4.770000000
H     2.305000000    -0.226000000    -4.974000000
O    -1.939000000     0.740000000    -5.151000000
H    -2.120000000     1.621000000    -5.481000000
H    -2.463000000     0.671000000    -4.353000000
O     6.027000000    -0.785000000    -1.831000000
H     6.480000000    -0.229000000    -2.464000000
H     5.627000000    -0.171000000    -1.216000000
O    -4.793000000    -3.625000000    -0.812000000
H    -5.589000000    -3.209000000    -1.141000000
H    -4.251000000    -2.897000000    -0.507000000
O    -6.514000000    -3.549000000     2.475000000
H    -6.382000000    -3.187000000     3.351000000
H    -6.708000000    -2.788000000     1.928000000
O     0.583000000    -0.684000000    -4.443000000
H     0.010000000     0.030000000    -4.723000000
H     0.402000000    -1.392000000    -5.061000000
O     6.525000000    -0.483000000     2.875000000
H     6.858000000    -1.130000000     2.254000000
H     5.736000000    -0.884000000     3.239000000
O     3.980000000     3.508000000    -5.178000000
H     3.734000000     3.297000000    -4.277000000
H     3.293000000     3.110000000    -5.713000000
O     4.047000000     4.797000000    -1.979000000
H     5.004000000     4.819000000    -2.012000000
H     3.814000000     3.948000000    -2.353000000
O     2.993000000    -3.039000000    -3.045000000
H     2.074000000    -3.090000000    -2.779000000
H     3.481000000    -3.333000000    -2.276000000
O     4.544000000    -0.748000000     5.326000000
H     5.230000000    -1.366000000     5.579000000
H     3.823000000    -1.301000000     5.026000000
O     2.313000000     6.780000000    -0.999000000
H     2.835000000     7.521000000    -1.307000000
H     2.776000000     6.009000000    -1.325000000
O    -0.901000000    -2.993000000     3.080000000
H    -0.386000000    -3.028000000     2.273000000
H    -1.810000000    -3.046000000     2.786000000
O     2.756000000     1.909000000    -6.925000000
H     3.420000000     1.758000000    -7.598000000
H     2.936000000     1.248000000    -6.257000000
O    -4.207000000     2.944000000     2.929000000
H    -4.071000000     2.765000000     1.999000000
H    -5.036000000     3.421000000     2.963000000
O     5.553000000     1.956000000    -0.680000000
H     5.877000000     2.588000000    -1.321000000
H     4.601000000     2.059000000    -0.701000000
O    -4.020000000    -5.936000000    -1.907000000
H    -4.797000000    -6.349000000    -2.282000000
H    -4.340000000    -5.112000000    -1.540000000
O    -7.566000000    -2.879000000    -1.391000000
H    -7.555000000    -2.510000000    -0.508000000
H    -8.482000000    -2.819000000    -1.664000000
O    -2.120000000    -2.667000000    -5.293000000
H    -2.603000000    -3.314000000    -5.806000000
H    -2.481000000    -1.824000000    -5.568000000
O     1.019000000     2.890000000    -3.669000000
H     0.202000000     3.110000000    -3.221000000
H     0.818000000     2.991000000    -4.599000000
O     4.845000000    -2.000000000    -4.752000000
H     5.453000000    -2.736000000    -4.821000000
H     4.209000000    -2.275000000    -4.092000000
O     0.881000000    -0.995000000     4.399000000
H     1.642000000    -1.402000000     3.984000000
H     0.129000000    -1.428000000     3.996000000
O     4.400000000     4.809000000     1.128000000
H     4.807000000     5.001000000     0.283000000
H     3.480000000     4.648000000     0.920000000
O    -3.699000000     0.321000000     3.393000000
H    -3.462000000    -0.216000000     2.637000000
H    -3.987000000     1.152000000     3.015000000
O    -6.798000000     2.044000000    -0.685000000
H    -6.486000000     1.376000000    -0.074000000
H    -7.391000000     1.574000000    -1.271000000
O     3.490000000     2.270000000    -2.702000000
H     3.697000000     1.493000000    -3.221000000
H     2.551000000     2.404000000    -2.836000000
O    -0.208000000    -2.094000000    -7.088000000
H     0.174000000    -2.924000000    -7.373000000
H    -0.803000000    -2.335000000    -6.378000000
O    -1.506000000     3.188000000    -2.526000000
H    -1.587000000     2.239000000    -2.439000000
H    -2.409000000     3.501000000    -2.582000000
O    -1.477000000    -3.571000000    -2.823000000
H    -2.400000000    -3.700000000    -2.606000000
H    -1.486000000    -2.925000000    -3.530000000
O    -2.976000000    -5.966000000     0.725000000
H    -3.318000000    -5.112000000     0.989000000
H    -3.198000000    -6.035000000    -0.204000000
O    -5.421000000    -0.140000000    -5.371000000
H    -5.582000000    -0.513000000    -4.505000000
H    -5.847000000     0.717000000    -5.346000000
O     0.301000000    -2.737000000     0.555000000
H     0.491000000    -3.065000000    -0.324000000
H     0.351000000    -1.785000000     0.471000000
O    -4.595000000     1.657000000     5.958000000
H    -4.613000000     1.062000000     5.209000000
H    -4.104000000     2.418000000     5.647000000
O    -1.030000000     4.158000000     0.949000000
H    -1.138000000     4.764000000     0.216000000
H    -1.750000000     3.535000000     0.852000000
O    -3.213000000     2.443000000     0.208000000
H    -3.676000000     2.587000000    -0.618000000
H    -2.484000000     1.868000000    -0.025000000
O     6.577000000    -2.984000000     1.221000000
H     5.831000000    -3.562000000     1.378000000
H     6.826000000    -3.156000000     0.313000000
O     0.876000000    -4.186000000    -1.722000000
H     0.908000000    -5.137000000    -1.827000000
H     0.076000000    -3.922000000    -2.176000000
O    -6.124000000    -0.837000000     0.797000000
H    -6.397000000    -0.403000000     1.606000000
H    -5.172000000    -0.905000000     0.871000000
O     7.711000000     1.557000000     1.078000000
H     7.487000000     0.815000000     1.641000000
H     6.897000000     1.761000000     0.617000000
