144
-2775.38923
O    -1.111000000    -4.882000000     4.901000000
H    -0.988000000    -5.549000000     5.576000000
H    -1.623000000    -4.197000000     5.332000000
O    -3.280000000     3.195000000    -1.472000000
H    -3.627000000     2.842000000    -0.653000000
H    -2.345000000     3.312000000    -1.305000000
O    -1.106000000    -3.929000000    -2.922000000
H    -0.956000000    -4.360000000    -2.080000000
H    -1.925000000    -3.448000000    -2.803000000
O    -1.822000000     0.966000000     4.591000000
H    -2.694000000     1.188000000     4.915000000
H    -1.232000000     1.548000000     5.070000000
O    -5.631000000    -1.555000000     2.739000000
H    -6.421000000    -2.093000000     2.690000000
H    -4.916000000    -2.187000000     2.814000000
O     3.243000000    -0.612000000    -0.819000000
H     2.994000000    -0.038000000    -0.095000000
H     2.757000000    -1.422000000    -0.662000000
O    -1.920000000     3.408000000     1.498000000
H    -1.053000000     3.808000000     1.563000000
H    -2.523000000     4.094000000     1.783000000
O     4.475000000    -5.065000000     3.310000000
H     3.582000000    -4.801000000     3.531000000
H     4.393000000    -5.978000000     3.034000000
O     4.794000000    -2.240000000     5.524000000
H     4.572000000    -1.614000000     4.835000000
H     5.749000000    -2.299000000     5.496000000
O    -1.913000000     7.092000000     2.787000000
H    -2.547000000     6.376000000     2.746000000
H    -1.121000000     6.734000000     2.385000000
O     2.403000000     1.024000000     4.425000000
H     2.199000000     0.189000000     4.845000000
H     3.214000000     0.859000000     3.945000000
O    -0.058000000    -7.780000000    -0.910000000
H    -0.598000000    -7.311000000    -0.273000000
H    -0.581000000    -7.783000000    -1.712000000
O     1.779000000    -7.706000000     1.884000000
H     0.908000000    -7.401000000     1.630000000
H     1.755000000    -8.651000000     1.732000000
O    -2.178000000     2.784000000    -5.767000000
H    -2.290000000     1.875000000    -6.045000000
H    -1.287000000     2.819000000    -5.418000000
O     3.379000000     3.377000000     2.835000000
H     2.818000000     2.996000000     3.511000000
H     4.136000000     3.714000000     3.315000000
O    -0.938000000    -6.814000000     1.832000000
H    -1.871000000    -7.017000000     1.761000000
H    -0.884000000    -6.184000000     2.550000000
O     4.736000000     0.012000000     3.099000000
H     4.805000000    -0.736000000     2.506000000
H     5.632000000     0.163000000     3.400000000
O     2.310000000     5.851000000    -1.792000000
H     1.722000000     5.287000000    -1.289000000
H     1.928000000     6.725000000    -1.715000000
O    -4.215000000    -1.388000000    -4.606000000
H    -3.784000000    -2.204000000    -4.349000000
H    -3.949000000    -0.757000000    -3.937000000
O     0.649000000     7.117000000    -5.264000000
H     0.234000000     6.608000000    -4.567000000
H     0.346000000     6.704000000    -6.073000000
O    -0.032000000    -0.685000000    -3.806000000
H     0.824000000    -1.053000000    -4.023000000
H    -0.297000000    -1.147000000    -3.011000000
O     2.995000000     6.243000000     2.536000000
H     3.494000000     5.734000000     3.175000000
H     2.300000000     6.655000000     3.049000000
O    -3.525000000    -3.327000000     3.185000000
H    -3.258000000    -3.805000000     2.400000000
H    -2.845000000    -2.664000000     3.305000000
O     1.847000000    -4.875000000     4.195000000
H     1.006000000    -4.455000000     4.375000000
H     1.682000000    -5.808000000     4.326000000
O     5.856000000     2.116000000    -0.403000000
H     5.123000000     2.555000000     0.028000000
H     5.499000000     1.272000000    -0.681000000
O    -3.507000000     6.673000000    -0.733000000
H    -4.052000000     5.886000000    -0.751000000
H    -2.631000000     6.352000000    -0.519000000
O    -4.041000000     1.462000000    -3.279000000
H    -3.736000000     2.014000000    -2.558000000
H    -3.873000000     1.980000000    -4.065000000
O     3.690000000    -4.026000000    -2.179000000
H     4.355000000    -3.815000000    -1.523000000
H     3.580000000    -4.974000000    -2.112000000
O    -3.630000000    -4.897000000     0.299000000
H    -4.490000000    -5.049000000     0.692000000
H    -3.457000000    -5.687000000    -0.212000000
O     1.269000000    -1.642000000     5.582000000
H     0.351000000    -1.697000000     5.846000000
H     1.584000000    -2.546000000     5.620000000
O     3.619000000     3.866000000    -3.349000000
H     3.853000000     3.886000000    -2.421000000
H     3.020000000     4.605000000    -3.461000000
O     2.216000000     3.511000000     5.536000000
H     3.156000000     3.647000000     5.420000000
H     2.102000000     2.563000000     5.469000000
O    -1.516000000    -1.996000000    -5.726000000
H    -1.304000000    -1.483000000    -4.946000000
H    -0.714000000    -2.483000000    -5.917000000
O     0.985000000     1.162000000    -6.662000000
H     0.758000000     1.389000000    -5.760000000
H     1.908000000     1.401000000    -6.744000000
O     0.184000000     2.104000000    -4.139000000
H     0.232000000     1.188000000    -3.866000000
H    -0.051000000     2.579000000    -3.341000000
O     4.637000000     6.295000000     0.476000000
H     4.171000000     6.292000000     1.312000000
H     4.314000000     5.518000000     0.019000000
O    -0.826000000     6.100000000    -0.682000000
H    -0.206000000     5.375000000    -0.605000000
H    -0.301000000     6.883000000    -0.512000000
O     3.331000000     3.433000000    -0.047000000
H     2.465000000     3.502000000    -0.449000000
H     3.193000000     3.689000000     0.865000000
O    -3.675000000     1.402000000     0.710000000
H    -2.928000000     1.874000000     1.078000000
H    -4.094000000     0.991000000     1.465000000
O    -3.576000000    -3.131000000    -2.212000000
H    -3.793000000    -3.908000000    -1.696000000
H    -4.119000000    -2.437000000    -1.838000000
O    -4.635000000    -0.564000000    -1.485000000
H    -4.297000000     0.141000000    -2.036000000
H    -4.254000000    -0.398000000    -0.622000000
O    -1.678000000    -1.368000000     3.299000000
H    -0.817000000    -1.666000000     3.594000000
H    -1.656000000    -0.418000000     3.415000000
O     0.331000000     5.241000000     2.046000000
H     1.252000000     5.208000000     2.306000000
H     0.302000000     4.782000000     1.207000000
O    -4.112000000     4.972000000    -3.970000000
H    -3.403000000     4.774000000    -3.358000000
H    -4.881000000     4.546000000    -3.591000000
O     5.164000000    -2.338000000     1.770000000
H     4.881000000    -2.970000000     2.431000000
H     5.242000000    -2.851000000     0.966000000
O     0.099000000    -5.691000000    -4.578000000
H    -0.487000000    -5.022000000    -4.223000000
H    -0.138000000    -6.490000000    -4.107000000
O     2.167000000    -6.378000000    -2.250000000
H     1.580000000    -6.077000000    -2.943000000
H     1.592000000    -6.815000000    -1.622000000
O    -0.730000000     5.477000000    -3.380000000
H    -1.046000000     6.052000000    -2.683000000
H    -0.722000000     4.605000000    -2.985000000
