144
-2845.67507
O     0.513000000    -4.330000000    -2.904000000
H     1.470000000    -4.308000000    -2.893000000
H     0.259000000    -4.137000000    -2.002000000
O     0.242000000    -1.452000000    -6.676000000
H     0.120000000    -1.801000000    -5.793000000
H    -0.631000000    -1.483000000    -7.068000000
O     2.434000000    -1.432000000     1.729000000
H     3.021000000    -0.889000000     1.203000000
H     1.627000000    -1.478000000     1.216000000
O    -2.799000000     2.382000000    -0.900000000
H    -2.719000000     3.220000000    -0.446000000
H    -3.338000000     1.845000000    -0.319000000
O    -4.269000000     2.750000000     2.269000000
H    -4.326000000     1.933000000     1.772000000
H    -3.681000000     2.547000000     2.996000000
O     2.361000000    -6.263000000    -2.382000000
H     2.819000000    -6.512000000    -3.185000000
H     1.460000000    -6.555000000    -2.520000000
O    -2.582000000    -4.404000000    -1.871000000
H    -1.849000000    -4.263000000    -1.272000000
H    -3.018000000    -3.553000000    -1.919000000
O    -2.685000000    -6.374000000    -3.731000000
H    -2.686000000    -5.764000000    -2.993000000
H    -3.197000000    -5.932000000    -4.408000000
O    -1.711000000    -2.832000000     3.667000000
H    -1.386000000    -3.722000000     3.809000000
H    -1.827000000    -2.768000000     2.719000000
O     5.429000000     0.384000000    -3.240000000
H     5.084000000     1.200000000    -2.879000000
H     6.287000000     0.284000000    -2.827000000
O     4.327000000    -0.135000000     0.001000000
H     5.212000000    -0.499000000    -0.006000000
H     4.457000000     0.807000000     0.113000000
O     3.893000000     1.321000000     3.229000000
H     3.906000000     1.913000000     2.477000000
H     4.745000000     0.885000000     3.205000000
O    -2.245000000    -0.962000000     5.934000000
H    -3.080000000    -0.895000000     6.396000000
H    -2.339000000    -1.739000000     5.382000000
O     3.070000000    -3.838000000    -4.432000000
H     3.461000000    -3.189000000    -3.848000000
H     3.044000000    -3.406000000    -5.287000000
O    -0.775000000     5.781000000     1.655000000
H    -1.510000000     5.385000000     1.187000000
H    -1.066000000     5.823000000     2.566000000
O    -4.046000000    -1.953000000    -1.686000000
H    -3.964000000    -1.309000000    -2.390000000
H    -4.838000000    -1.693000000    -1.215000000
O    -2.803000000     1.376000000     4.455000000
H    -3.718000000     1.094000000     4.468000000
H    -2.314000000     0.618000000     4.773000000
O    -2.894000000     4.868000000     0.382000000
H    -3.209000000     5.399000000    -0.349000000
H    -3.676000000     4.693000000     0.906000000
O     4.217000000    -2.075000000    -2.778000000
H     4.303000000    -1.200000000    -3.156000000
H     4.628000000    -2.004000000    -1.916000000
O     0.389000000    -0.304000000     5.989000000
H    -0.482000000    -0.641000000     5.776000000
H     0.691000000     0.107000000     5.179000000
O     4.789000000     5.115000000     1.657000000
H     4.890000000     5.389000000     2.568000000
H     4.404000000     5.875000000     1.219000000
O    -5.591000000    -6.836000000     0.203000000
H    -5.959000000    -6.304000000    -0.503000000
H    -4.707000000    -6.490000000     0.327000000
O    -1.888000000     0.802000000    -2.834000000
H    -1.036000000     0.368000000    -2.779000000
H    -1.859000000     1.472000000    -2.151000000
O    -5.878000000    -4.455000000    -1.250000000
H    -5.051000000    -4.022000000    -1.040000000
H    -6.503000000    -3.737000000    -1.355000000
O     1.493000000     0.022000000    -4.777000000
H     1.049000000     0.021000000    -5.625000000
H     1.138000000    -0.740000000    -4.320000000
O    -5.368000000     0.289000000     4.154000000
H    -5.895000000     0.987000000     3.764000000
H    -5.716000000     0.194000000     5.041000000
O    -3.356000000    -5.055000000     2.056000000
H    -2.928000000    -5.909000000     2.008000000
H    -2.694000000    -4.437000000     1.746000000
O     0.982000000     6.658000000    -1.632000000
H     1.190000000     6.101000000    -0.882000000
H     0.031000000     6.759000000    -1.599000000
O     4.559000000     3.132000000    -2.109000000
H     3.807000000     3.138000000    -2.701000000
H     4.948000000     4.001000000    -2.209000000
O    -0.208000000    -5.979000000     3.147000000
H    -0.021000000    -5.903000000     2.211000000
H    -1.120000000    -6.266000000     3.186000000
O    -2.311000000    -7.475000000     1.723000000
H    -2.590000000    -8.192000000     2.293000000
H    -2.288000000    -7.860000000     0.847000000
O    -2.040000000     3.704000000     5.146000000
H    -1.718000000     3.284000000     5.944000000
H    -2.350000000     2.980000000     4.603000000
O     0.831000000     3.694000000     4.149000000
H     0.940000000     2.745000000     4.100000000
H     0.001000000     3.817000000     4.608000000
O     1.204000000     1.047000000     3.603000000
H     0.849000000     0.800000000     2.750000000
H     2.140000000     0.855000000     3.538000000
O    -4.155000000    -1.765000000     1.610000000
H    -3.332000000    -2.175000000     1.346000000
H    -4.815000000    -2.168000000     1.047000000
O     2.422000000     5.694000000     5.057000000
H     1.918000000     5.079000000     4.523000000
H     2.057000000     5.602000000     5.937000000
O     4.319000000     2.567000000     0.806000000
H     4.674000000     3.410000000     1.088000000
H     4.109000000     2.693000000    -0.119000000
O    -5.541000000    -5.408000000     3.551000000
H    -4.788000000    -5.329000000     2.965000000
H    -5.549000000    -6.331000000     3.807000000
O    -4.502000000     0.793000000     0.403000000
H    -5.453000000     0.903000000     0.400000000
H    -4.369000000    -0.135000000     0.593000000
O     3.150000000     2.659000000    -4.298000000
H     3.005000000     1.734000000    -4.496000000
H     2.273000000     3.011000000    -4.142000000
O     0.720000000    -5.819000000     0.481000000
H     1.667000000    -5.687000000     0.515000000
H     0.366000000    -4.957000000     0.261000000
O     1.688000000     5.483000000     0.952000000
H     2.185000000     4.865000000     1.488000000
H     0.805000000     5.462000000     1.319000000
O    -6.217000000    -2.489000000     3.893000000
H    -5.600000000    -1.762000000     3.978000000
H    -5.701000000    -3.198000000     3.509000000
O     0.374000000    -8.525000000    -0.485000000
H     0.473000000    -7.605000000    -0.241000000
H    -0.384000000    -8.538000000    -1.068000000
O    -0.521000000    -2.465000000    -4.403000000
H     0.119000000    -3.046000000    -3.991000000
H    -1.349000000    -2.678000000    -3.972000000
O     3.301000000     7.486000000     0.793000000
H     2.590000000     6.845000000     0.788000000
H     2.934000000     8.256000000     0.359000000
O     0.771000000     4.268000000    -4.586000000
H     0.041000000     4.397000000    -3.981000000
H     1.143000000     5.142000000    -4.704000000
O     0.081000000    -7.105000000    -3.716000000
H     0.135000000    -6.149000000    -3.706000000
H    -0.800000000    -7.292000000    -4.040000000
