144
-2788.11326
O    -1.161000000     6.350000000     0.092000000
H    -1.786000000     5.627000000     0.044000000
H    -0.637000000     6.162000000     0.871000000
O    -3.002000000    -2.898000000    -2.674000000
H    -3.244000000    -3.824000000    -2.667000000
H    -2.422000000    -2.797000000    -1.919000000
O    -0.261000000     5.971000000    -3.672000000
H    -0.206000000     5.216000000    -4.258000000
H    -0.835000000     5.683000000    -2.963000000
O     5.858000000     1.075000000    -2.162000000
H     6.193000000     0.627000000    -1.385000000
H     6.575000000     1.026000000    -2.794000000
O     2.707000000     5.081000000    -0.281000000
H     2.589000000     4.527000000     0.490000000
H     2.777000000     4.466000000    -1.011000000
O    -1.788000000    -5.649000000     3.022000000
H    -2.000000000    -5.879000000     2.117000000
H    -1.385000000    -4.783000000     2.960000000
O     0.507000000    -0.872000000     4.749000000
H     0.877000000    -1.451000000     5.416000000
H    -0.306000000    -1.301000000     4.485000000
O     0.797000000    -0.867000000    -3.642000000
H     1.565000000    -0.444000000    -3.257000000
H     1.130000000    -1.295000000    -4.431000000
O    -4.910000000    -2.547000000     0.522000000
H    -4.832000000    -1.901000000    -0.181000000
H    -4.011000000    -2.684000000     0.822000000
O     0.855000000    -5.918000000     4.254000000
H     1.534000000    -6.589000000     4.324000000
H     0.445000000    -5.899000000     5.119000000
O    -1.168000000    -7.905000000    -0.525000000
H    -2.062000000    -8.222000000    -0.400000000
H    -1.264000000    -6.961000000    -0.649000000
O     0.943000000     6.101000000     1.588000000
H     1.546000000     6.168000000     0.847000000
H     1.358000000     6.615000000     2.280000000
O     4.399000000     3.495000000    -2.317000000
H     4.464000000     2.556000000    -2.143000000
H     5.244000000     3.726000000    -2.704000000
O     2.588000000     1.816000000    -5.150000000
H     1.791000000     1.588000000    -5.627000000
H     3.287000000     1.364000000    -5.621000000
O    -2.612000000    -1.473000000     3.637000000
H    -2.612000000    -1.641000000     4.580000000
H    -1.925000000    -2.044000000     3.293000000
O     2.552000000     2.962000000     5.272000000
H     2.613000000     2.105000000     4.850000000
H     1.673000000     3.272000000     5.059000000
O    -0.781000000    -4.942000000    -0.719000000
H    -1.255000000    -4.447000000    -0.050000000
H    -0.490000000    -4.279000000    -1.345000000
O    -1.908000000     3.809000000    -4.917000000
H    -1.312000000     3.059000000    -4.915000000
H    -2.341000000     3.772000000    -4.064000000
O    -4.064000000    -0.343000000    -3.442000000
H    -3.825000000    -0.137000000    -4.346000000
H    -3.732000000    -1.230000000    -3.303000000
O     0.382000000     3.530000000     2.806000000
H     0.374000000     4.432000000     2.485000000
H     0.052000000     3.012000000     2.073000000
O    -3.255000000    -5.729000000     0.561000000
H    -3.260000000    -5.797000000    -0.394000000
H    -3.086000000    -4.803000000     0.734000000
O     3.567000000    -5.728000000     1.982000000
H     2.967000000    -5.103000000     2.387000000
H     3.167000000    -6.583000000     2.144000000
O     1.798000000     7.252000000    -2.107000000
H     2.065000000     6.519000000    -1.552000000
H     1.358000000     6.841000000    -2.851000000
O    -3.503000000    -5.715000000     5.303000000
H    -3.056000000    -5.601000000     4.465000000
H    -3.111000000    -5.056000000     5.876000000
O    -5.472000000    -4.755000000     2.033000000
H    -4.921000000    -5.403000000     1.594000000
H    -5.446000000    -3.989000000     1.460000000
O     0.178000000    -3.206000000    -2.624000000
H     0.064000000    -2.317000000    -2.958000000
H     0.709000000    -3.646000000    -3.288000000
O    -0.719000000     1.084000000    -5.246000000
H    -0.894000000     0.704000000    -6.107000000
H    -0.242000000     0.401000000    -4.775000000
O     5.403000000     4.932000000     0.617000000
H     5.014000000     4.308000000     0.005000000
H     4.750000000     5.026000000     1.311000000
O    -5.631000000    -0.728000000    -1.437000000
H    -6.507000000    -0.661000000    -1.815000000
H    -5.040000000    -0.650000000    -2.186000000
O    -2.665000000     4.865000000    -2.315000000
H    -2.733000000     3.995000000    -1.921000000
H    -3.512000000     5.275000000    -2.136000000
O     4.624000000    -3.555000000     0.219000000
H     4.295000000    -3.847000000     1.069000000
H     3.942000000    -2.972000000    -0.114000000
O    -3.873000000     2.154000000    -1.922000000
H    -4.765000000     2.494000000    -1.854000000
H    -3.981000000     1.261000000    -2.250000000
O    -1.624000000    -3.307000000    -5.833000000
H    -1.024000000    -4.051000000    -5.887000000
H    -1.252000000    -2.749000000    -5.149000000
O     2.575000000     4.336000000    -4.221000000
H     3.163000000     4.094000000    -3.506000000
H     2.336000000     3.503000000    -4.628000000
O    -5.149000000    -2.956000000     4.226000000
H    -5.381000000    -3.717000000     3.694000000
H    -4.498000000    -2.487000000     3.703000000
O     3.053000000     3.829000000     2.179000000
H     3.825000000     3.552000000     2.673000000
H     2.316000000     3.436000000     2.646000000
O     2.420000000     0.685000000     3.857000000
H     1.547000000     0.374000000     4.096000000
H     2.657000000     0.167000000     3.088000000
O    -5.143000000     2.249000000     0.636000000
H    -4.454000000     2.138000000    -0.019000000
H    -5.916000000     1.845000000     0.241000000
O     4.759000000    -2.419000000     3.888000000
H     4.493000000    -1.949000000     3.097000000
H     3.956000000    -2.836000000     4.200000000
O     5.408000000     1.211000000     1.097000000
H     6.308000000     1.125000000     0.783000000
H     5.447000000     1.913000000     1.747000000
O     3.762000000    -0.800000000     1.903000000
H     4.359000000    -0.245000000     1.402000000
H     3.228000000    -1.237000000     1.240000000
O     4.053000000     0.030000000     6.017000000
H     4.977000000     0.274000000     5.951000000
H     3.712000000     0.141000000     5.130000000
O     1.795000000    -3.820000000     2.960000000
H     1.473000000    -4.505000000     3.546000000
H     1.005000000    -3.363000000     2.669000000
O     3.641000000    -0.328000000    -2.645000000
H     4.088000000     0.518000000    -2.687000000
H     4.341000000    -0.973000000    -2.747000000
O     1.471000000    -6.924000000    -0.101000000
H     1.183000000    -7.823000000     0.059000000
H     0.663000000    -6.411000000    -0.104000000
O     2.553000000    -1.793000000    -0.552000000
H     2.685000000    -1.300000000    -1.362000000
H     1.602000000    -1.878000000    -0.476000000
O     5.371000000     2.900000000     3.257000000
H     5.507000000     1.977000000     3.471000000
H     5.765000000     3.376000000     3.989000000
O    -4.787000000    -0.025000000     2.867000000
H    -3.983000000    -0.508000000     3.056000000
H    -4.524000000     0.638000000     2.228000000
