144
-2811.42576
O    -3.368000000     5.119000000    -0.937000000
H    -3.381000000     4.397000000    -1.566000000
H    -2.450000000     5.388000000    -0.900000000
O     3.085000000     2.469000000     1.892000000
H     3.886000000     1.992000000     1.676000000
H     3.306000000     3.389000000     1.746000000
O    -4.405000000     3.320000000     2.190000000
H    -4.006000000     2.461000000     2.325000000
H    -5.346000000     3.161000000     2.264000000
O     2.657000000    -0.848000000     2.487000000
H     1.707000000    -0.734000000     2.511000000
H     2.997000000     0.019000000     2.268000000
O    -3.569000000    -3.537000000    -1.562000000
H    -3.493000000    -3.588000000    -0.609000000
H    -4.382000000    -3.999000000    -1.763000000
O    -2.108000000     4.909000000     2.252000000
H    -1.499000000     4.841000000     1.517000000
H    -2.832000000     4.327000000     2.018000000
O    -1.488000000    -3.450000000     5.042000000
H    -1.502000000    -4.235000000     4.495000000
H    -2.405000000    -3.302000000     5.273000000
O     5.977000000    -1.548000000    -3.138000000
H     5.169000000    -1.544000000    -3.651000000
H     6.658000000    -1.791000000    -3.765000000
O    -1.286000000    -5.571000000     3.619000000
H    -1.665000000    -5.921000000     2.812000000
H    -0.524000000    -6.127000000     3.785000000
O     0.422000000     6.385000000    -5.629000000
H     0.201000000     5.805000000    -4.901000000
H     0.358000000     7.266000000    -5.262000000
O     4.727000000    -1.885000000     1.084000000
H     4.132000000    -2.000000000     1.825000000
H     5.204000000    -1.079000000     1.281000000
O    -0.825000000    -0.584000000    -6.077000000
H    -0.060000000    -0.235000000    -5.620000000
H    -0.959000000    -1.450000000    -5.692000000
O     4.308000000    -1.416000000     4.615000000
H     3.567000000    -1.682000000     4.071000000
H     4.893000000    -2.173000000     4.610000000
O    -3.268000000     0.847000000     2.927000000
H    -2.429000000     0.729000000     3.372000000
H    -3.334000000     0.097000000     2.337000000
O     1.498000000     1.435000000    -7.116000000
H     1.402000000     2.346000000    -6.840000000
H     0.908000000     1.348000000    -7.864000000
O    -1.304000000     7.625000000    -1.889000000
H    -1.626000000     7.773000000    -1.000000000
H    -0.551000000     8.210000000    -1.972000000
O     2.003000000     6.207000000     0.983000000
H     2.958000000     6.141000000     0.962000000
H     1.817000000     6.739000000     1.756000000
O     1.668000000    -4.555000000    -0.117000000
H     1.861000000    -4.266000000     0.775000000
H     1.119000000    -5.331000000    -0.004000000
O     1.789000000    -2.504000000    -4.507000000
H     1.534000000    -3.089000000    -3.793000000
H     2.734000000    -2.627000000    -4.592000000
O     3.947000000     3.115000000    -4.876000000
H     3.122000000     3.241000000    -5.345000000
H     3.886000000     2.230000000    -4.517000000
O     1.357000000     3.580000000    -5.317000000
H     1.159000000     3.125000000    -4.499000000
H     0.977000000     4.452000000    -5.204000000
O     6.001000000     0.509000000    -1.105000000
H     5.940000000    -0.189000000    -1.757000000
H     5.211000000     1.032000000    -1.238000000
O     2.139000000    -4.354000000     5.238000000
H     1.684000000    -3.513000000     5.189000000
H     1.814000000    -4.756000000     6.043000000
O     3.168000000    -0.980000000    -1.335000000
H     3.704000000    -1.227000000    -0.582000000
H     2.266000000    -1.067000000    -1.027000000
O    -0.281000000     0.577000000     5.835000000
H     0.125000000     1.202000000     5.234000000
H    -1.128000000     0.966000000     6.050000000
O     4.365000000    -5.419000000     3.782000000
H     3.889000000    -5.091000000     3.020000000
H     3.888000000    -5.066000000     4.533000000
O     2.160000000     5.089000000    -1.638000000
H     1.457000000     4.439000000    -1.654000000
H     1.955000000     5.644000000    -0.885000000
O    -0.733000000     5.255000000    -3.560000000
H    -0.438000000     4.512000000    -3.034000000
H    -1.034000000     5.898000000    -2.919000000
O    -3.227000000     2.521000000    -1.883000000
H    -2.565000000     2.305000000    -2.540000000
H    -2.872000000     2.176000000    -1.063000000
O     0.728000000    -2.035000000     5.803000000
H     0.517000000    -1.119000000     5.620000000
H    -0.066000000    -2.515000000     5.568000000
O     3.123000000     0.943000000    -3.225000000
H     3.123000000     0.048000000    -2.887000000
H     2.197000000     1.160000000    -3.330000000
O     0.703000000    -4.564000000    -2.759000000
H     0.046000000    -5.218000000    -2.519000000
H     1.249000000    -4.476000000    -1.978000000
O     4.225000000     5.224000000    -3.253000000
H     3.412000000     5.248000000    -2.750000000
H     4.147000000     4.440000000    -3.798000000
O     0.359000000     4.683000000     3.771000000
H     0.742000000     5.495000000     3.438000000
H    -0.580000000     4.860000000     3.810000000
O    -2.272000000     4.371000000    -6.121000000
H    -2.268000000     5.229000000    -5.698000000
H    -1.852000000     3.789000000    -5.487000000
O     4.452000000     2.564000000    -1.824000000
H     4.430000000     3.403000000    -2.284000000
H     3.847000000     2.006000000    -2.313000000
O    -1.552000000    -5.907000000    -1.696000000
H    -2.077000000    -5.179000000    -1.365000000
H    -2.195000000    -6.552000000    -1.991000000
O    -1.017000000    -3.631000000    -4.997000000
H    -0.424000000    -4.072000000    -4.389000000
H    -0.887000000    -4.086000000    -5.830000000
O    -4.954000000    -0.135000000     0.497000000
H    -5.601000000     0.283000000    -0.072000000
H    -4.257000000    -0.412000000    -0.098000000
O     1.207000000     1.990000000     3.743000000
H     0.587000000     2.670000000     3.479000000
H     1.798000000     1.902000000     2.995000000
O    -2.964000000    -1.939000000    -3.838000000
H    -3.256000000    -2.387000000    -3.045000000
H    -2.296000000    -2.517000000    -4.208000000
O    -2.769000000    -0.281000000    -1.115000000
H    -2.665000000    -0.258000000    -2.066000000
H    -1.922000000    -0.583000000    -0.788000000
O    -1.926000000     1.424000000    -4.108000000
H    -0.991000000     1.393000000    -3.908000000
H    -2.093000000     0.619000000    -4.599000000
O    -3.740000000    -4.414000000     0.972000000
H    -3.348000000    -5.044000000     1.577000000
H    -4.667000000    -4.399000000     1.209000000
O    -0.632000000     5.120000000     0.148000000
H    -0.503000000     4.535000000    -0.599000000
H     0.248000000     5.428000000     0.365000000
O     1.046000000    -6.761000000     4.130000000
H     1.237000000    -6.929000000     5.053000000
H     1.806000000    -6.273000000     3.813000000
O     0.101000000    -6.782000000     0.216000000
H    -0.480000000    -6.715000000    -0.542000000
H    -0.079000000    -7.650000000     0.579000000
O     2.375000000     3.170000000     5.917000000
H     1.852000000     2.845000000     5.185000000
H     3.155000000     3.545000000     5.507000000
