144
-2817.56629
O    -3.297000000    -0.157000000     5.119000000
H    -4.120000000    -0.253000000     5.599000000
H    -2.646000000     0.029000000     5.796000000
O    -0.659000000    -2.924000000     5.190000000
H    -1.205000000    -3.100000000     4.424000000
H    -0.011000000    -3.628000000     5.189000000
O     2.229000000     1.891000000     6.566000000
H     2.711000000     2.362000000     7.246000000
H     2.307000000     0.969000000     6.813000000
O    -3.542000000     5.227000000     1.558000000
H    -3.725000000     4.858000000     2.422000000
H    -3.677000000     4.498000000     0.952000000
O     4.414000000    -0.055000000     6.059000000
H     4.027000000    -0.895000000     5.810000000
H     4.602000000    -0.145000000     6.993000000
O    -2.548000000    -3.909000000     3.353000000
H    -3.271000000    -4.168000000     3.925000000
H    -2.556000000    -4.557000000     2.649000000
O    -1.117000000     5.185000000    -5.154000000
H    -1.786000000     5.331000000    -4.484000000
H    -0.598000000     5.989000000    -5.153000000
O     3.806000000    -5.394000000     2.300000000
H     4.657000000    -5.821000000     2.203000000
H     3.885000000    -4.586000000     1.792000000
O    -0.124000000    -2.283000000    -5.104000000
H     0.503000000    -2.177000000    -4.389000000
H    -0.929000000    -2.575000000    -4.675000000
O     5.094000000     1.687000000     3.289000000
H     4.152000000     1.853000000     3.317000000
H     5.255000000     1.099000000     4.027000000
O     2.234000000     2.350000000     3.904000000
H     1.484000000     2.856000000     3.590000000
H     2.107000000     2.298000000     4.852000000
O    -3.835000000     3.015000000    -0.655000000
H    -4.507000000     2.340000000    -0.561000000
H    -3.420000000     2.824000000    -1.496000000
O     3.592000000    -3.215000000    -0.495000000
H     3.225000000    -2.333000000    -0.429000000
H     3.631000000    -3.389000000    -1.435000000
O     2.946000000    -0.193000000    -0.842000000
H     3.695000000     0.382000000    -0.998000000
H     2.354000000     0.328000000    -0.299000000
O     2.507000000     1.093000000    -5.546000000
H     1.995000000     0.328000000    -5.807000000
H     1.921000000     1.836000000    -5.696000000
O     3.582000000    -3.148000000     6.234000000
H     3.303000000    -4.046000000     6.414000000
H     3.660000000    -2.745000000     7.099000000
O     0.486000000     2.612000000    -5.188000000
H    -0.008000000     2.150000000    -4.510000000
H     0.214000000     3.525000000    -5.102000000
O     1.015000000    -4.989000000     4.712000000
H     0.625000000    -5.486000000     3.993000000
H     1.887000000    -5.369000000     4.820000000
O    -2.723000000     2.027000000     3.356000000
H    -2.144000000     1.749000000     2.647000000
H    -3.238000000     1.247000000     3.564000000
O     0.314000000    -0.289000000     5.585000000
H     0.672000000    -0.083000000     4.721000000
H     0.050000000    -1.207000000     5.521000000
O    -2.417000000    -0.668000000     2.466000000
H    -2.714000000    -0.992000000     3.317000000
H    -1.533000000    -1.021000000     2.371000000
O     3.134000000     5.356000000    -4.202000000
H     3.332000000     5.174000000    -3.284000000
H     2.343000000     4.846000000    -4.382000000
O     0.833000000     4.594000000    -2.231000000
H     0.120000000     3.972000000    -2.373000000
H     0.448000000     5.281000000    -1.687000000
O    -2.318000000     5.245000000    -2.845000000
H    -1.996000000     4.388000000    -2.566000000
H    -3.101000000     5.391000000    -2.314000000
O    -3.661000000     2.693000000    -5.332000000
H    -3.551000000     3.178000000    -6.150000000
H    -2.893000000     2.926000000    -4.810000000
O     0.893000000     4.946000000     2.845000000
H     0.133000000     5.404000000     2.486000000
H     1.062000000     5.382000000     3.681000000
O     1.995000000    -1.050000000    -3.248000000
H     2.327000000    -0.245000000    -3.646000000
H     2.387000000    -1.064000000    -2.375000000
O     3.356000000    -3.330000000    -3.258000000
H     2.907000000    -2.544000000    -3.567000000
H     2.916000000    -4.051000000    -3.709000000
O     0.380000000    -4.594000000    -2.146000000
H     0.929000000    -4.676000000    -2.926000000
H    -0.387000000    -4.105000000    -2.443000000
O     1.004000000    -0.865000000    -7.086000000
H     0.678000000    -1.555000000    -6.508000000
H     0.243000000    -0.613000000    -7.610000000
O    -4.854000000     1.060000000    -2.745000000
H    -5.670000000     0.559000000    -2.724000000
H    -4.165000000     0.396000000    -2.748000000
O     0.207000000     7.173000000     0.117000000
H     1.101000000     6.857000000     0.246000000
H    -0.329000000     6.379000000     0.116000000
O     2.598000000     2.721000000    -1.980000000
H     1.919000000     3.388000000    -2.081000000
H     3.411000000     3.218000000    -1.894000000
O    -4.017000000    -0.121000000    -6.053000000
H    -3.536000000     0.687000000    -5.876000000
H    -4.936000000     0.116000000    -5.936000000
O    -0.985000000     7.587000000    -2.450000000
H    -1.284000000     8.069000000    -1.679000000
H    -1.544000000     6.811000000    -2.478000000
O    -1.803000000    -1.546000000    -7.101000000
H    -2.649000000    -1.213000000    -6.802000000
H    -1.307000000    -1.694000000    -6.296000000
O     2.616000000     6.333000000     0.744000000
H     2.430000000     5.484000000     1.145000000
H     3.472000000     6.221000000     0.331000000
O    -5.026000000    -2.040000000    -2.726000000
H    -5.811000000    -2.579000000    -2.627000000
H    -4.683000000    -1.950000000    -1.837000000
O    -2.652000000     4.191000000     5.175000000
H    -3.438000000     4.542000000     4.757000000
H    -2.399000000     3.449000000     4.624000000
O    -2.057000000    -3.519000000    -3.340000000
H    -2.363000000    -2.619000000    -3.452000000
H    -2.851000000    -4.051000000    -3.400000000
O    -2.301000000    -0.891000000    -4.021000000
H    -1.823000000    -0.078000000    -3.862000000
H    -3.028000000    -0.635000000    -4.588000000
O    -0.792000000     4.769000000     0.013000000
H    -1.593000000     5.024000000     0.471000000
H    -1.077000000     4.107000000    -0.617000000
O    -0.874000000     1.984000000    -7.837000000
H    -0.569000000     1.794000000    -6.949000000
H    -1.687000000     2.473000000    -7.711000000
O     1.661000000    -5.102000000     0.039000000
H     1.082000000    -4.934000000    -0.705000000
H     2.314000000    -4.404000000    -0.004000000
O    -4.200000000    -1.749000000    -0.108000000
H    -3.514000000    -1.098000000     0.037000000
H    -4.128000000    -2.343000000     0.639000000
O     6.157000000    -3.637000000     0.100000000
H     5.235000000    -3.598000000    -0.155000000
H     6.312000000    -4.562000000     0.293000000
O    -1.611000000    -5.991000000    -1.308000000
H    -1.131000000    -5.197000000    -1.545000000
H    -2.450000000    -5.908000000    -1.760000000
O     0.482000000    -6.008000000     2.254000000
H     1.037000000    -5.681000000     1.546000000
H    -0.133000000    -6.601000000     1.823000000
