144
-2807.27833
O    -0.947000000     3.633000000     5.164000000
H    -1.231000000     3.404000000     6.049000000
H    -0.785000000     2.790000000     4.739000000
O    -3.131000000     1.886000000    -3.824000000
H    -3.144000000     1.802000000    -4.778000000
H    -2.696000000     1.089000000    -3.520000000
O     2.779000000    -0.530000000     3.557000000
H     3.319000000    -0.613000000     4.343000000
H     1.990000000    -1.034000000     3.754000000
O    -4.404000000     6.374000000    -3.052000000
H    -3.753000000     5.687000000    -2.911000000
H    -3.973000000     6.995000000    -3.641000000
O    -7.590000000     4.122000000     0.548000000
H    -7.758000000     3.471000000     1.230000000
H    -6.832000000     4.612000000     0.867000000
O    -2.653000000    -2.812000000     1.180000000
H    -2.228000000    -2.737000000     0.326000000
H    -2.021000000    -3.285000000     1.721000000
O    -4.118000000     2.607000000     3.756000000
H    -3.770000000     3.492000000     3.867000000
H    -3.791000000     2.326000000     2.902000000
O    -5.225000000     1.770000000    -0.082000000
H    -4.973000000     2.329000000    -0.817000000
H    -4.404000000     1.593000000     0.377000000
O    -0.227000000     1.121000000     3.982000000
H     0.164000000     0.251000000     4.064000000
H    -0.576000000     1.144000000     3.091000000
O     5.512000000    -1.767000000    -1.002000000
H     5.781000000    -1.679000000    -1.917000000
H     4.655000000    -1.342000000    -0.962000000
O    -3.801000000    -3.804000000    -2.503000000
H    -3.136000000    -3.343000000    -1.991000000
H    -3.488000000    -3.750000000    -3.406000000
O     1.931000000    -3.918000000     4.733000000
H     1.512000000    -4.779000000     4.726000000
H     2.662000000    -4.002000000     4.121000000
O     4.058000000    -4.855000000    -2.371000000
H     4.266000000    -4.099000000    -2.920000000
H     3.824000000    -5.545000000    -2.992000000
O    -4.677000000    -1.660000000     5.252000000
H    -4.425000000    -0.804000000     5.600000000
H    -4.425000000    -1.627000000     4.329000000
O    -0.644000000    -4.284000000     2.852000000
H    -0.883000000    -4.852000000     2.120000000
H    -0.392000000    -4.887000000     3.551000000
O    -6.357000000     0.464000000    -3.686000000
H    -5.453000000     0.585000000    -3.394000000
H    -6.310000000     0.530000000    -4.640000000
O     1.958000000     2.581000000     0.830000000
H     1.370000000     1.845000000     0.999000000
H     1.479000000     3.133000000     0.211000000
O    -1.966000000     6.271000000    -0.724000000
H    -1.390000000     6.775000000    -1.299000000
H    -2.414000000     5.661000000    -1.310000000
O     0.690000000     5.705000000     2.079000000
H     1.518000000     6.177000000     2.173000000
H     0.782000000     5.222000000     1.258000000
O    -2.053000000    -0.692000000    -3.938000000
H    -1.263000000    -0.917000000    -4.429000000
H    -2.768000000    -1.079000000    -4.443000000
O     2.871000000    -0.520000000    -6.234000000
H     3.040000000     0.265000000    -6.756000000
H     3.677000000    -1.030000000    -6.300000000
O    -4.208000000    -0.856000000     2.785000000
H    -4.011000000     0.069000000     2.635000000
H    -3.908000000    -1.296000000     1.989000000
O     3.845000000    -4.022000000     3.050000000
H     4.116000000    -3.141000000     3.311000000
H     4.333000000    -4.193000000     2.245000000
O     6.074000000    -3.902000000     1.148000000
H     5.635000000    -3.508000000     0.394000000
H     6.415000000    -4.733000000     0.818000000
O    -6.405000000     0.895000000     3.497000000
H    -5.640000000     1.455000000     3.362000000
H    -6.052000000     0.005000000     3.502000000
O     0.486000000    -1.109000000    -4.932000000
H     1.302000000    -0.908000000    -5.390000000
H     0.640000000    -1.965000000    -4.533000000
O     6.941000000    -0.210000000     0.723000000
H     7.099000000    -0.410000000     1.646000000
H     6.323000000    -0.882000000     0.435000000
O     4.809000000     0.206000000    -3.654000000
H     4.300000000     0.670000000    -2.989000000
H     5.542000000     0.792000000    -3.846000000
O     0.447000000     4.444000000    -0.395000000
H    -0.509000000     4.470000000    -0.426000000
H     0.708000000     4.161000000    -1.271000000
O     4.069000000     1.517000000    -1.216000000
H     3.429000000     1.478000000    -0.506000000
H     4.679000000     2.205000000    -0.950000000
O    -5.241000000    -3.298000000     0.403000000
H    -4.917000000    -3.390000000    -0.493000000
H    -4.452000000    -3.204000000     0.936000000
O     0.855000000    -3.872000000    -4.334000000
H     1.195000000    -4.708000000    -4.015000000
H     1.192000000    -3.801000000    -5.227000000
O    -1.711000000    -1.945000000    -1.710000000
H    -0.928000000    -1.550000000    -1.327000000
H    -1.874000000    -1.432000000    -2.502000000
O     0.584000000    -1.793000000     3.902000000
H    -0.028000000    -2.031000000     3.205000000
H     0.906000000    -2.631000000     4.234000000
O    -5.391000000     7.204000000     1.675000000
H    -5.177000000     6.317000000     1.387000000
H    -5.225000000     7.752000000     0.909000000
O    -7.416000000     0.191000000    -0.181000000
H    -7.463000000    -0.092000000     0.732000000
H    -6.688000000     0.813000000    -0.201000000
O    -1.585000000     7.105000000     1.952000000
H    -1.961000000     6.553000000     1.266000000
H    -0.816000000     6.622000000     2.254000000
O     0.448000000    -5.387000000    -1.432000000
H     1.222000000    -5.160000000    -0.917000000
H    -0.256000000    -4.864000000    -1.049000000
O    -4.350000000     0.934000000     5.915000000
H    -4.980000000     1.374000000     6.486000000
H    -4.118000000     1.593000000     5.261000000
O    -2.843000000     4.135000000    -2.242000000
H    -2.997000000     3.375000000    -2.803000000
H    -2.775000000     3.772000000    -1.359000000
O     4.004000000     1.907000000     2.560000000
H     3.415000000     1.237000000     2.906000000
H     3.565000000     2.228000000     1.772000000
O     4.873000000    -2.797000000    -4.105000000
H     4.697000000    -1.857000000    -4.136000000
H     5.489000000    -2.950000000    -4.821000000
O    -1.684000000    -5.776000000     0.661000000
H    -1.845000000    -6.434000000     1.337000000
H    -2.382000000    -5.915000000     0.021000000
O     1.992000000     1.544000000    -4.541000000
H     1.186000000     1.581000000    -5.056000000
H     2.352000000     0.675000000    -4.721000000
O     1.325000000     3.521000000    -2.780000000
H     1.992000000     4.109000000    -3.133000000
H     1.310000000     2.783000000    -3.389000000
O     2.691000000    -5.814000000    -0.214000000
H     3.232000000    -6.588000000    -0.061000000
H     2.953000000    -5.505000000    -1.081000000
O    -3.040000000     5.074000000     3.706000000
H    -2.825000000     5.992000000     3.541000000
H    -2.245000000     4.707000000     4.091000000
O    -4.463000000     4.760000000     0.971000000
H    -4.130000000     3.938000000     0.610000000
H    -3.866000000     4.964000000     1.692000000
