144
-2790.46008
O    -1.659000000    -3.775000000    -3.035000000
H    -1.567000000    -2.829000000    -2.922000000
H    -1.871000000    -3.886000000    -3.962000000
O     2.440000000    -2.044000000     4.450000000
H     1.971000000    -2.709000000     4.953000000
H     3.258000000    -2.470000000     4.192000000
O    -5.434000000    -1.305000000    -2.416000000
H    -4.980000000    -1.502000000    -3.236000000
H    -5.655000000    -2.162000000    -2.053000000
O    -5.888000000     1.092000000     1.544000000
H    -5.061000000     0.872000000     1.115000000
H    -6.543000000     1.024000000     0.850000000
O     1.117000000     2.799000000    -3.374000000
H     1.664000000     2.037000000    -3.186000000
H     0.219000000     2.474000000    -3.299000000
O    -3.904000000     7.154000000    -1.902000000
H    -3.131000000     7.652000000    -2.167000000
H    -3.607000000     6.244000000    -1.879000000
O    -7.064000000     0.879000000    -0.936000000
H    -7.617000000     1.201000000    -1.648000000
H    -6.568000000     0.159000000    -1.325000000
O    -3.930000000     1.000000000    -2.283000000
H    -4.600000000     0.322000000    -2.372000000
H    -3.910000000     1.195000000    -1.347000000
O    -1.672000000     2.081000000    -3.492000000
H    -1.957000000     2.898000000    -3.901000000
H    -2.479000000     1.683000000    -3.165000000
O    -3.962000000    -1.159000000     2.950000000
H    -4.552000000    -1.856000000     2.663000000
H    -3.130000000    -1.603000000     3.115000000
O     4.385000000    -3.135000000    -3.983000000
H     3.723000000    -3.680000000    -3.557000000
H     4.799000000    -2.656000000    -3.265000000
O    -5.107000000    -3.858000000    -1.057000000
H    -4.357000000    -4.451000000    -1.112000000
H    -4.867000000    -3.230000000    -0.376000000
O     2.454000000    -4.682000000    -3.036000000
H     1.940000000    -5.489000000    -3.023000000
H     2.413000000    -4.357000000    -2.137000000
O     0.154000000    -6.569000000     0.156000000
H    -0.558000000    -6.401000000     0.774000000
H     0.468000000    -7.443000000     0.384000000
O    -0.292000000    -6.337000000    -2.776000000
H    -0.356000000    -6.149000000    -1.840000000
H    -0.556000000    -5.522000000    -3.203000000
O     5.970000000     0.957000000     0.375000000
H     6.758000000     0.800000000     0.895000000
H     6.137000000     0.510000000    -0.454000000
O     5.328000000    -2.450000000     1.628000000
H     5.836000000    -3.043000000     1.074000000
H     4.680000000    -3.013000000     2.052000000
O    -5.910000000     0.260000000     4.455000000
H    -5.551000000     1.038000000     4.882000000
H    -5.231000000    -0.007000000     3.835000000
O     2.346000000    -4.976000000    -0.326000000
H     1.701000000    -5.533000000     0.109000000
H     3.137000000    -5.064000000     0.206000000
O     3.078000000     0.189000000     2.738000000
H     3.096000000    -0.286000000     1.908000000
H     2.993000000    -0.493000000     3.404000000
O    -2.705000000     4.696000000    -1.700000000
H    -2.591000000     4.256000000    -2.542000000
H    -2.433000000     4.047000000    -1.052000000
O     0.872000000     6.622000000     2.851000000
H     0.535000000     5.738000000     2.704000000
H     1.800000000     6.495000000     3.046000000
O     3.375000000     5.162000000     2.856000000
H     3.658000000     4.250000000     2.799000000
H     4.114000000     5.618000000     3.258000000
O    -2.182000000    -2.826000000     3.593000000
H    -1.816000000    -3.597000000     4.026000000
H    -1.428000000    -2.256000000     3.440000000
O    -3.399000000     1.773000000     3.915000000
H    -4.014000000     1.416000000     3.275000000
H    -3.403000000     2.716000000     3.753000000
O    -1.917000000    -5.886000000     2.037000000
H    -1.788000000    -5.376000000     2.836000000
H    -2.326000000    -6.699000000     2.335000000
O     4.803000000    -5.233000000     1.060000000
H     5.077000000    -6.147000000     0.986000000
H     4.622000000    -5.111000000     1.992000000
O    -2.802000000     5.595000000     1.204000000
H    -3.080000000     5.865000000     0.329000000
H    -2.493000000     4.696000000     1.091000000
O    -5.721000000    -3.064000000     1.628000000
H    -5.782000000    -3.427000000     2.512000000
H    -6.629000000    -3.003000000     1.331000000
O    -1.347000000    -0.717000000    -3.363000000
H    -0.401000000    -0.864000000    -3.338000000
H    -1.445000000     0.228000000    -3.246000000
O    -2.659000000     7.246000000     3.445000000
H    -3.321000000     7.913000000     3.262000000
H    -2.667000000     6.681000000     2.673000000
O     0.871000000     7.097000000    -0.280000000
H     1.782000000     6.836000000    -0.145000000
H     0.474000000     7.040000000     0.590000000
O     4.164000000     2.607000000     2.407000000
H     3.779000000     1.772000000     2.670000000
H     4.942000000     2.365000000     1.904000000
O    -3.440000000    -5.711000000    -1.931000000
H    -2.780000000    -5.101000000    -2.263000000
H    -4.027000000    -5.855000000    -2.673000000
O     5.510000000     1.871000000    -3.519000000
H     5.424000000     2.805000000    -3.325000000
H     4.812000000     1.456000000    -3.011000000
O    -3.131000000     4.621000000     4.427000000
H    -2.449000000     4.497000000     5.086000000
H    -2.700000000     5.108000000     3.725000000
O    -6.014000000     4.090000000    -1.315000000
H    -5.260000000     3.634000000    -0.942000000
H    -6.322000000     4.660000000    -0.610000000
O    -4.849000000     3.506000000     1.526000000
H    -5.065000000     2.575000000     1.478000000
H    -3.925000000     3.550000000     1.278000000
O    -8.250000000     2.680000000     2.223000000
H    -7.394000000     2.498000000     1.836000000
H    -8.493000000     1.864000000     2.661000000
O     0.005000000    -0.926000000     3.234000000
H     0.156000000    -0.977000000     2.291000000
H     0.765000000    -1.360000000     3.622000000
O     6.771000000    -0.301000000     2.708000000
H     7.647000000    -0.675000000     2.616000000
H     6.255000000    -0.727000000     2.024000000
O     1.378000000    -1.454000000    -4.131000000
H     1.565000000    -2.285000000    -3.694000000
H     1.228000000    -1.693000000    -5.046000000
O     1.076000000     2.229000000     3.082000000
H     1.667000000     2.613000000     2.434000000
H     1.237000000     1.287000000     3.026000000
O     5.460000000    -0.971000000    -2.662000000
H     5.952000000    -0.658000000    -3.421000000
H     6.121000000    -1.369000000    -2.096000000
O     2.830000000     0.645000000    -3.045000000
H     3.506000000    -0.005000000    -2.858000000
H     2.088000000     0.133000000    -3.367000000
O     5.227000000    -4.856000000    -1.688000000
H     4.828000000    -4.516000000    -0.887000000
H     4.704000000    -5.627000000    -1.907000000
O    -1.208000000     0.625000000     4.948000000
H    -0.686000000     0.155000000     4.298000000
H    -1.847000000     1.117000000     4.433000000
O    -0.406000000     4.287000000     2.496000000
H    -0.043000000     3.533000000     2.961000000
H    -0.887000000     3.908000000     1.761000000
