144
-2818.76132
O    -3.396000000     3.864000000    -4.130000000
H    -2.829000000     4.460000000    -4.619000000
H    -2.836000000     3.513000000    -3.438000000
O    -4.983000000    -0.102000000    -1.417000000
H    -5.838000000    -0.476000000    -1.631000000
H    -4.388000000    -0.852000000    -1.410000000
O    -5.716000000     1.085000000     0.951000000
H    -4.887000000     1.291000000     1.382000000
H    -5.469000000     0.845000000     0.058000000
O     1.991000000     1.684000000    -4.075000000
H     2.649000000     1.297000000    -3.497000000
H     1.238000000     1.098000000    -4.008000000
O    -7.888000000    -0.231000000     2.286000000
H    -8.199000000    -1.002000000     1.812000000
H    -7.162000000     0.098000000     1.756000000
O    -3.975000000     6.003000000    -2.116000000
H    -3.050000000     6.211000000    -1.984000000
H    -4.052000000     5.082000000    -1.868000000
O    -2.466000000     0.787000000    -3.047000000
H    -3.234000000     0.670000000    -2.487000000
H    -2.818000000     0.792000000    -3.937000000
O     0.099000000    -0.105000000    -3.443000000
H    -0.736000000     0.310000000    -3.225000000
H     0.518000000    -0.259000000    -2.596000000
O    -2.323000000    -1.738000000     3.812000000
H    -3.184000000    -2.124000000     3.648000000
H    -1.717000000    -2.479000000     3.770000000
O     6.114000000    -4.051000000    -2.454000000
H     5.620000000    -4.799000000    -2.790000000
H     5.621000000    -3.764000000    -1.686000000
O    -3.477000000    -2.268000000    -0.988000000
H    -2.805000000    -2.439000000    -1.648000000
H    -3.293000000    -2.897000000    -0.290000000
O     1.005000000    -4.638000000    -2.505000000
H     1.700000000    -4.768000000    -1.859000000
H     0.229000000    -4.432000000    -1.984000000
O    -0.315000000    -5.046000000    -0.069000000
H    -0.104000000    -5.902000000     0.304000000
H    -0.401000000    -4.469000000     0.691000000
O    -6.240000000    -3.425000000    -1.031000000
H    -6.776000000    -3.736000000    -1.761000000
H    -5.369000000    -3.303000000    -1.409000000
O     5.101000000     0.710000000    -0.033000000
H     5.185000000     1.662000000    -0.094000000
H     4.379000000     0.495000000    -0.624000000
O     6.397000000    -2.136000000     1.809000000
H     6.640000000    -2.808000000     2.446000000
H     6.695000000    -2.484000000     0.969000000
O     2.595000000    -6.160000000    -0.613000000
H     2.143000000    -6.645000000     0.078000000
H     3.371000000    -5.800000000    -0.185000000
O     4.012000000    -0.896000000     2.170000000
H     4.059000000    -0.166000000     1.553000000
H     4.789000000    -1.421000000     1.979000000
O     3.742000000     3.923000000    -4.183000000
H     4.537000000     3.655000000    -3.723000000
H     3.096000000     3.255000000    -3.954000000
O    -1.265000000     3.065000000    -2.185000000
H    -1.702000000     3.028000000    -1.334000000
H    -1.426000000     2.206000000    -2.575000000
O    -6.413000000     2.731000000     5.359000000
H    -6.579000000     3.654000000     5.550000000
H    -5.464000000     2.676000000     5.249000000
O    -0.412000000    -3.284000000     2.760000000
H     0.324000000    -3.738000000     3.168000000
H    -0.069000000    -2.417000000     2.543000000
O    -6.577000000     6.282000000    -0.904000000
H    -6.284000000     7.187000000    -1.007000000
H    -5.785000000     5.758000000    -1.024000000
O    -2.103000000     1.196000000     3.898000000
H    -2.273000000     0.254000000     3.895000000
H    -2.311000000     1.479000000     3.008000000
O     4.521000000    -5.329000000     1.589000000
H     4.782000000    -4.797000000     2.340000000
H     3.947000000    -6.001000000     1.959000000
O    -2.213000000     5.186000000     1.643000000
H    -2.904000000     5.848000000     1.634000000
H    -2.368000000     4.667000000     0.853000000
O    -3.303000000     2.138000000     6.027000000
H    -2.991000000     2.988000000     6.338000000
H    -2.919000000     2.047000000     5.154000000
O    -3.031000000    -3.911000000     1.300000000
H    -3.666000000    -3.860000000     2.015000000
H    -2.277000000    -4.361000000     1.681000000
O    -1.229000000    -2.750000000    -3.121000000
H    -0.896000000    -1.863000000    -3.259000000
H    -0.665000000    -3.304000000    -3.661000000
O     1.039000000     6.148000000     0.223000000
H     1.876000000     5.775000000    -0.054000000
H     0.782000000     5.622000000     0.980000000
O     3.817000000     3.070000000     2.439000000
H     4.026000000     3.019000000     3.371000000
H     4.631000000     3.359000000     2.026000000
O    -3.239000000    -5.682000000    -1.047000000
H    -3.248000000    -4.971000000    -0.406000000
H    -3.103000000    -5.245000000    -1.887000000
O     4.927000000     3.534000000    -0.818000000
H     5.821000000     3.813000000    -1.014000000
H     4.396000000     4.321000000    -0.947000000
O    -3.540000000    -4.420000000    -3.355000000
H    -2.963000000    -3.688000000    -3.572000000
H    -3.528000000    -4.973000000    -4.136000000
O    -1.823000000     4.591000000     5.330000000
H    -2.510000000     5.092000000     4.890000000
H    -1.566000000     3.926000000     4.691000000
O    -4.948000000     3.599000000    -0.654000000
H    -5.698000000     3.067000000    -0.389000000
H    -4.203000000     3.206000000    -0.199000000
O    -3.836000000     3.687000000     3.664000000
H    -3.218000000     3.523000000     2.952000000
H    -4.623000000     4.012000000     3.227000000
O    -7.107000000     3.520000000     1.671000000
H    -6.537000000     2.767000000     1.825000000
H    -7.821000000     3.412000000     2.299000000
O     2.376000000    -2.557000000     3.901000000
H     3.078000000    -2.089000000     3.449000000
H     2.831000000    -3.147000000     4.502000000
O     3.432000000    -2.257000000    -3.620000000
H     3.009000000    -3.070000000    -3.895000000
H     4.316000000    -2.313000000    -3.982000000
O     2.008000000     1.002000000     3.072000000
H     2.552000000     1.749000000     2.821000000
H     2.553000000     0.237000000     2.888000000
O     7.661000000    -0.057000000    -1.316000000
H     6.876000000     0.229000000    -0.849000000
H     7.718000000    -0.996000000    -1.136000000
O     3.944000000     0.433000000    -2.807000000
H     4.715000000     0.477000000    -3.372000000
H     3.616000000    -0.460000000    -2.918000000
O    -1.275000000     5.959000000    -1.715000000
H    -1.134000000     5.070000000    -2.039000000
H    -0.684000000     6.038000000    -0.967000000
O     0.547000000    -4.045000000    -4.995000000
H     1.358000000    -4.029000000    -5.504000000
H     0.748000000    -4.601000000    -4.242000000
O    -0.114000000     4.360000000    -4.832000000
H    -0.387000000     4.506000000    -3.926000000
H     0.021000000     5.239000000    -5.187000000
O     0.203000000     2.766000000     4.583000000
H     0.837000000     2.170000000     4.185000000
H    -0.639000000     2.320000000     4.486000000
O     0.197000000     4.864000000     2.489000000
H     0.190000000     4.166000000     3.144000000
H    -0.706000000     4.908000000     2.176000000
