144
-2821.14143
O    -6.156000000     3.621000000     5.160000000
H    -5.423000000     3.006000000     5.194000000
H    -5.757000000     4.477000000     5.315000000
O    -4.495000000     0.330000000    -1.882000000
H    -4.352000000    -0.356000000    -2.534000000
H    -4.888000000    -0.126000000    -1.138000000
O    -2.368000000    -1.172000000    -5.951000000
H    -2.793000000    -1.642000000    -6.669000000
H    -2.589000000    -0.253000000    -6.104000000
O    -4.030000000     2.979000000    -1.044000000
H    -3.928000000     2.469000000    -0.241000000
H    -3.964000000     2.334000000    -1.748000000
O    -3.342000000    -1.274000000     2.430000000
H    -3.219000000    -1.889000000     1.707000000
H    -3.336000000    -0.412000000     2.015000000
O    -7.090000000     3.397000000    -0.020000000
H    -7.438000000     3.177000000    -0.884000000
H    -6.561000000     2.638000000     0.225000000
O    -2.503000000     4.365000000     6.439000000
H    -1.971000000     4.968000000     6.958000000
H    -3.047000000     4.935000000     5.894000000
O     2.499000000     3.262000000    -1.746000000
H     1.683000000     3.581000000    -2.131000000
H     2.482000000     3.586000000    -0.845000000
O     5.354000000     2.285000000    -1.699000000
H     5.853000000     2.266000000    -2.516000000
H     4.455000000     2.469000000    -1.972000000
O     0.905000000    -4.075000000    -4.565000000
H     1.731000000    -4.485000000    -4.309000000
H     0.974000000    -3.969000000    -5.514000000
O    -1.000000000    -6.162000000    -3.701000000
H    -0.675000000    -5.359000000    -4.108000000
H    -1.926000000    -6.193000000    -3.940000000
O    -2.989000000    -1.850000000    -3.453000000
H    -2.753000000    -1.551000000    -4.331000000
H    -2.282000000    -2.445000000    -3.204000000
O     1.204000000    -4.935000000    -1.019000000
H     1.433000000    -5.326000000    -1.863000000
H     2.029000000    -4.577000000    -0.690000000
O    -1.650000000     0.376000000     6.350000000
H    -1.844000000     0.273000000     7.282000000
H    -0.730000000     0.639000000     6.324000000
O    -4.316000000    -4.433000000    -1.903000000
H    -3.470000000    -4.515000000    -1.463000000
H    -4.948000000    -4.341000000    -1.190000000
O    -4.953000000     0.229000000     6.440000000
H    -4.571000000     0.957000000     5.951000000
H    -4.612000000    -0.555000000     6.010000000
O     3.038000000    -5.602000000    -3.642000000
H     2.614000000    -6.193000000    -4.264000000
H     3.468000000    -6.183000000    -3.014000000
O    -3.599000000     2.206000000     4.883000000
H    -2.940000000     1.856000000     4.284000000
H    -3.111000000     2.788000000     5.465000000
O    -7.462000000     2.917000000     2.740000000
H    -7.350000000     3.337000000     1.887000000
H    -6.841000000     3.366000000     3.313000000
O    -5.182000000    -3.397000000     3.169000000
H    -4.697000000    -2.597000000     3.368000000
H    -6.028000000    -3.090000000     2.843000000
O     4.799000000    -2.062000000    -5.093000000
H     5.191000000    -1.192000000    -5.172000000
H     5.528000000    -2.667000000    -5.229000000
O    -3.007000000    -2.489000000    -0.296000000
H    -3.103000000    -2.352000000    -1.238000000
H    -2.071000000    -2.649000000    -0.171000000
O     4.163000000    -1.958000000     2.832000000
H     3.254000000    -2.258000000     2.841000000
H     4.344000000    -1.770000000     1.911000000
O     0.093000000     4.013000000     1.422000000
H    -0.584000000     4.519000000     0.973000000
H    -0.392000000     3.402000000     1.976000000
O    -0.100000000     2.539000000     5.009000000
H    -0.460000000     2.152000000     4.211000000
H    -0.800000000     3.102000000     5.340000000
O    -6.343000000    -1.026000000    -0.375000000
H    -6.441000000    -0.556000000     0.453000000
H    -6.303000000    -1.948000000    -0.123000000
O     2.764000000     1.181000000    -3.915000000
H     2.609000000     1.282000000    -2.976000000
H     2.535000000     0.270000000    -4.099000000
O     3.755000000     0.664000000     4.412000000
H     3.971000000     1.083000000     3.579000000
H     3.860000000    -0.273000000     4.243000000
O     0.368000000     0.462000000    -6.699000000
H     0.549000000    -0.221000000    -7.345000000
H     0.819000000     0.169000000    -5.907000000
O     4.603000000     3.584000000     3.312000000
H     3.963000000     3.058000000     2.832000000
H     5.420000000     3.089000000     3.244000000
O     6.313000000    -5.415000000    -0.273000000
H     5.567000000    -4.948000000    -0.650000000
H     6.854000000    -5.651000000    -1.027000000
O    -0.917000000    -3.444000000    -2.700000000
H    -0.106000000    -3.632000000    -3.174000000
H    -0.658000000    -3.434000000    -1.778000000
O    -6.035000000     1.213000000     1.070000000
H    -5.114000000     1.327000000     1.306000000
H    -6.518000000     1.657000000     1.766000000
O     2.317000000     2.220000000     5.910000000
H     2.861000000     1.628000000     5.389000000
H     1.507000000     2.306000000     5.407000000
O    -1.237000000     6.284000000     3.510000000
H    -1.676000000     5.440000000     3.407000000
H    -1.739000000     6.884000000     2.959000000
O    -2.098000000     5.316000000    -0.284000000
H    -2.571000000     5.907000000    -0.871000000
H    -2.367000000     4.440000000    -0.560000000
O     6.503000000     1.674000000     2.830000000
H     6.840000000     0.845000000     3.173000000
H     6.008000000     1.426000000     2.049000000
O    -2.996000000     4.303000000     2.919000000
H    -3.563000000     4.329000000     2.149000000
H    -2.735000000     3.385000000     2.995000000
O     4.945000000    -3.974000000    -2.224000000
H     4.330000000    -3.487000000    -1.676000000
H     4.392000000    -4.419000000    -2.866000000
O     1.656000000    -2.670000000     2.464000000
H     1.000000000    -3.335000000     2.671000000
H     1.175000000    -2.006000000     1.969000000
O    -5.520000000     5.580000000     0.217000000
H    -4.746000000     5.807000000    -0.299000000
H    -5.688000000     4.662000000     0.006000000
O     4.441000000    -1.419000000     0.058000000
H     5.323000000    -1.314000000    -0.298000000
H     4.296000000    -0.627000000     0.575000000
O     4.538000000     1.121000000     0.967000000
H     4.870000000     1.368000000     0.104000000
H     3.741000000     1.641000000     1.075000000
O     2.719000000     3.191000000     1.460000000
H     1.772000000     3.221000000     1.592000000
H     2.944000000     4.067000000     1.146000000
O     3.466000000    -4.172000000     0.359000000
H     3.492000000    -4.490000000     1.262000000
H     3.866000000    -3.303000000     0.401000000
O     2.314000000    -1.534000000    -4.803000000
H     3.201000000    -1.835000000    -5.002000000
H     1.841000000    -2.328000000    -4.556000000
O    -3.109000000    -1.682000000     5.145000000
H    -3.481000000    -1.258000000     4.372000000
H    -2.584000000    -0.999000000     5.564000000
O    -0.812000000    -3.812000000     0.442000000
H    -0.760000000    -4.222000000     1.305000000
H    -0.027000000    -4.114000000    -0.015000000
