144
-2795.40525
O    -2.005000000     1.964000000    -4.434000000
H    -1.063000000     1.908000000    -4.272000000
H    -2.318000000     2.613000000    -3.804000000
O    -0.740000000     5.019000000    -3.085000000
H    -0.180000000     4.396000000    -3.546000000
H    -0.582000000     4.843000000    -2.157000000
O    -3.347000000    -3.332000000    -3.535000000
H    -3.483000000    -2.474000000    -3.937000000
H    -4.031000000    -3.395000000    -2.867000000
O    -5.542000000     4.214000000     1.514000000
H    -4.705000000     3.749000000     1.526000000
H    -6.192000000     3.530000000     1.356000000
O     2.505000000     4.499000000    -0.993000000
H     2.541000000     5.379000000    -0.618000000
H     3.387000000     4.149000000    -0.868000000
O    -0.339000000    -3.579000000    -3.460000000
H    -1.288000000    -3.580000000    -3.588000000
H    -0.184000000    -4.260000000    -2.806000000
O     0.271000000    -3.542000000     2.771000000
H     1.012000000    -3.233000000     3.293000000
H    -0.484000000    -3.072000000     3.126000000
O    -1.793000000    -2.068000000     4.445000000
H    -2.294000000    -1.367000000     4.027000000
H    -2.364000000    -2.387000000     5.144000000
O    -3.284000000     2.877000000    -0.901000000
H    -3.413000000     2.858000000     0.047000000
H    -2.411000000     3.252000000    -1.017000000
O     4.109000000    -2.152000000    -0.673000000
H     3.557000000    -2.438000000    -1.401000000
H     3.612000000    -2.385000000     0.110000000
O    -6.767000000    -1.813000000     1.185000000
H    -6.534000000    -2.319000000     0.407000000
H    -6.354000000    -0.960000000     1.049000000
O    -4.779000000     0.727000000     5.956000000
H    -4.874000000     0.239000000     5.139000000
H    -5.182000000     1.577000000     5.776000000
O    -4.051000000    -2.368000000     6.003000000
H    -4.683000000    -3.085000000     6.058000000
H    -4.521000000    -1.669000000     5.547000000
O     7.987000000    -0.138000000    -2.105000000
H     8.348000000    -0.786000000    -1.500000000
H     7.042000000    -0.293000000    -2.085000000
O    -4.864000000    -3.435000000     2.612000000
H    -5.730000000    -3.142000000     2.328000000
H    -4.256000000    -2.988000000     2.023000000
O     0.504000000     4.515000000     3.612000000
H     0.569000000     3.591000000     3.371000000
H     1.154000000     4.629000000     4.304000000
O    -3.084000000    -4.815000000     4.144000000
H    -3.715000000    -5.481000000     4.418000000
H    -3.562000000    -4.277000000     3.513000000
O     1.796000000    -3.394000000    -5.172000000
H     1.089000000    -3.473000000    -4.531000000
H     2.597000000    -3.448000000    -4.652000000
O    -6.419000000    -2.536000000    -2.654000000
H    -5.782000000    -2.707000000    -1.961000000
H    -6.508000000    -1.583000000    -2.668000000
O     3.177000000     5.898000000    -3.738000000
H     2.713000000     5.494000000    -3.005000000
H     3.540000000     5.160000000    -4.228000000
O     3.274000000     4.521000000     1.918000000
H     3.878000000     4.024000000     1.365000000
H     2.949000000     3.881000000     2.552000000
O    -2.029000000    -4.050000000     0.827000000
H    -2.530000000    -3.245000000     0.956000000
H    -1.256000000    -3.943000000     1.380000000
O     1.506000000    -3.134000000     0.093000000
H     1.161000000    -2.329000000    -0.293000000
H     1.063000000    -3.204000000     0.938000000
O     5.241000000    -0.512000000    -2.446000000
H     4.930000000    -0.869000000    -1.614000000
H     4.935000000    -1.137000000    -3.104000000
O    -3.700000000    -6.338000000     1.286000000
H    -3.387000000    -5.458000000     1.497000000
H    -3.829000000    -6.325000000     0.338000000
O    -4.817000000    -2.924000000    -0.625000000
H    -4.241000000    -2.413000000    -0.056000000
H    -4.476000000    -3.817000000    -0.570000000
O    -5.643000000     0.670000000     1.035000000
H    -4.780000000     0.351000000     1.301000000
H    -5.884000000     1.301000000     1.714000000
O    -0.461000000    -0.993000000    -4.957000000
H     0.493000000    -0.923000000    -4.918000000
H    -0.629000000    -1.931000000    -5.053000000
O    -3.015000000     3.291000000     1.788000000
H    -2.130000000     3.333000000     1.424000000
H    -2.897000000     2.913000000     2.660000000
O     1.487000000     0.600000000     6.412000000
H     2.273000000     0.338000000     5.933000000
H     1.810000000     1.171000000     7.108000000
O    -3.772000000    -0.580000000    -4.140000000
H    -2.818000000    -0.502000000    -4.145000000
H    -4.081000000     0.277000000    -3.845000000
O     3.933000000    -4.012000000    -3.550000000
H     4.791000000    -4.322000000    -3.839000000
H     3.636000000    -4.676000000    -2.928000000
O     5.625000000     1.241000000    -4.402000000
H     5.667000000     1.046000000    -3.466000000
H     4.878000000     0.733000000    -4.719000000
O    -5.473000000    -0.675000000     3.914000000
H    -4.758000000    -0.863000000     3.306000000
H    -5.930000000     0.070000000     3.524000000
O    -2.160000000     0.139000000    -6.514000000
H    -1.431000000    -0.453000000    -6.327000000
H    -2.131000000     0.785000000    -5.807000000
O    -0.416000000     6.358000000     1.695000000
H    -0.977000000     6.782000000     2.344000000
H    -0.186000000     5.517000000     2.091000000
O    -6.717000000     1.991000000     3.212000000
H    -6.490000000     2.534000000     3.967000000
H    -7.667000000     1.889000000     3.268000000
O     4.046000000     3.366000000    -4.686000000
H     4.740000000     2.709000000    -4.633000000
H     3.801000000     3.381000000    -5.612000000
O    -1.060000000     1.713000000     6.326000000
H    -0.136000000     1.468000000     6.272000000
H    -1.501000000     0.918000000     6.625000000
O     0.781000000     2.829000000    -4.002000000
H     0.839000000     2.849000000    -4.957000000
H     1.626000000     2.480000000    -3.719000000
O     3.859000000    -0.462000000    -5.789000000
H     3.624000000    -1.381000000    -5.661000000
H     4.320000000    -0.448000000    -6.628000000
O     4.815000000     3.403000000    -0.269000000
H     4.929000000     2.652000000    -0.851000000
H     5.705000000     3.714000000    -0.103000000
O    -0.430000000     4.069000000    -0.248000000
H     0.460000000     3.724000000    -0.176000000
H    -0.423000000     4.864000000     0.286000000
O    -0.841000000    -5.190000000    -1.331000000
H    -1.430000000    -4.862000000    -0.652000000
H    -0.188000000    -5.702000000    -0.856000000
O     2.656000000     2.568000000     3.545000000
H     2.460000000     2.918000000     4.414000000
H     3.127000000     1.753000000     3.716000000
O    -7.209000000     1.449000000    -1.137000000
H    -8.012000000     1.207000000    -0.675000000
H    -6.505000000     1.085000000    -0.600000000
O     3.449000000    -5.130000000    -0.139000000
H     2.891000000    -4.358000000    -0.232000000
H     3.194000000    -5.699000000    -0.865000000
O    -2.353000000     2.065000000     3.931000000
H    -2.653000000     1.219000000     3.599000000
H    -1.684000000     1.844000000     4.579000000
