144
-2837.70608
O     4.485000000     1.384000000    -3.441000000
H     3.876000000     0.685000000    -3.679000000
H     3.929000000     2.152000000    -3.309000000
O     3.989000000    -2.079000000     2.669000000
H     4.503000000    -2.041000000     1.863000000
H     4.568000000    -1.715000000     3.339000000
O    -4.035000000    -1.783000000    -5.196000000
H    -3.578000000    -0.975000000    -4.962000000
H    -4.830000000    -1.489000000    -5.640000000
O    -5.478000000     1.415000000     3.704000000
H    -5.253000000     1.016000000     4.544000000
H    -4.643000000     1.487000000     3.242000000
O     1.524000000     4.805000000     0.748000000
H     1.602000000     4.492000000     1.649000000
H     2.007000000     5.632000000     0.738000000
O    -5.047000000     1.636000000    -2.517000000
H    -4.932000000     1.211000000    -1.667000000
H    -5.900000000     1.329000000    -2.825000000
O    -2.640000000     3.729000000     2.427000000
H    -2.824000000     2.801000000     2.283000000
H    -3.369000000     4.037000000     2.965000000
O     5.517000000     4.128000000     1.605000000
H     5.235000000     3.292000000     1.233000000
H     5.791000000     4.646000000     0.848000000
O    -3.068000000     0.409000000    -4.184000000
H    -2.629000000     1.240000000    -4.365000000
H    -3.678000000     0.610000000    -3.475000000
O     2.710000000    -3.664000000    -3.073000000
H     3.630000000    -3.573000000    -2.827000000
H     2.733000000    -3.968000000    -3.981000000
O     4.591000000     1.882000000     0.536000000
H     5.257000000     1.357000000     0.092000000
H     3.918000000     2.026000000    -0.128000000
O    -8.077000000     0.343000000    -0.348000000
H    -8.902000000     0.822000000    -0.276000000
H    -7.879000000     0.070000000     0.548000000
O    -5.467000000    -1.864000000     2.299000000
H    -4.537000000    -1.761000000     2.501000000
H    -5.694000000    -2.726000000     2.648000000
O    -7.529000000    -0.057000000     2.381000000
H    -7.446000000     0.315000000     3.259000000
H    -6.800000000    -0.673000000     2.312000000
O     4.067000000     0.826000000     3.025000000
H     3.446000000     0.115000000     2.862000000
H     4.172000000     1.253000000     2.175000000
O     0.197000000     1.505000000    -2.675000000
H     0.487000000     0.958000000    -3.405000000
H    -0.029000000     0.882000000    -1.984000000
O    -8.013000000    -2.687000000    -1.395000000
H    -7.410000000    -2.078000000    -0.969000000
H    -8.741000000    -2.139000000    -1.688000000
O    -7.605000000     3.980000000     1.686000000
H    -7.171000000     4.747000000     1.312000000
H    -7.024000000     3.249000000     1.474000000
O    -4.722000000    -3.144000000    -2.647000000
H    -4.844000000    -2.436000000    -3.279000000
H    -4.796000000    -2.718000000    -1.793000000
O    -5.694000000     2.035000000     0.844000000
H    -6.322000000     1.364000000     1.113000000
H    -4.927000000     1.542000000     0.552000000
O    -3.655000000    -6.181000000    -2.047000000
H    -3.406000000    -5.269000000    -1.896000000
H    -3.102000000    -6.682000000    -1.447000000
O     2.014000000     3.541000000     5.603000000
H     2.220000000     3.454000000     4.672000000
H     1.538000000     2.739000000     5.818000000
O     0.893000000    -4.683000000    -1.100000000
H     1.450000000    -4.362000000    -0.391000000
H     1.352000000    -4.426000000    -1.900000000
O    -0.206000000     1.860000000     6.047000000
H    -0.338000000     1.316000000     5.271000000
H    -0.634000000     1.377000000     6.754000000
O    -3.000000000    -1.382000000     2.860000000
H    -3.062000000    -0.462000000     2.605000000
H    -2.264000000    -1.723000000     2.352000000
O     1.699000000    -1.012000000     5.159000000
H     2.430000000    -1.627000000     5.211000000
H     1.369000000    -0.955000000     6.056000000
O     3.520000000    -4.332000000     0.717000000
H     4.005000000    -3.715000000     1.265000000
H     4.198000000    -4.835000000     0.265000000
O    -0.499000000     4.507000000     3.762000000
H     0.180000000     3.886000000     4.026000000
H    -1.159000000     3.968000000     3.325000000
O     3.002000000     4.030000000     3.120000000
H     3.673000000     4.664000000     3.375000000
H     3.482000000     3.349000000     2.649000000
O    -3.028000000    -4.332000000    -4.807000000
H    -3.006000000    -3.498000000    -5.276000000
H    -3.475000000    -4.134000000    -3.984000000
O     6.145000000     0.456000000    -1.504000000
H     7.077000000     0.509000000    -1.713000000
H     5.707000000     0.854000000    -2.256000000
O    -5.390000000    -1.688000000    -0.360000000
H    -4.855000000    -0.897000000    -0.424000000
H    -5.334000000    -1.941000000     0.562000000
O     0.664000000     0.000000000    -4.849000000
H     0.348000000    -0.796000000    -5.277000000
H     0.611000000     0.674000000    -5.527000000
O    -4.138000000     4.072000000    -1.470000000
H    -4.522000000     3.277000000    -1.839000000
H    -3.603000000     3.763000000    -0.739000000
O    -5.130000000     4.154000000     3.270000000
H    -5.392000000     4.715000000     2.541000000
H    -5.772000000     3.444000000     3.268000000
O    -1.724000000    -4.770000000    -0.052000000
H    -1.012000000    -4.621000000    -0.674000000
H    -1.350000000    -5.359000000     0.603000000
O     5.189000000    -2.123000000     0.245000000
H     4.999000000    -2.745000000    -0.458000000
H     5.116000000    -1.264000000    -0.169000000
O     3.404000000    -4.727000000     3.677000000
H     3.246000000    -3.928000000     3.174000000
H     4.356000000    -4.772000000     3.763000000
O    -2.378000000    -1.572000000     5.436000000
H    -1.526000000    -2.004000000     5.375000000
H    -2.702000000    -1.554000000     4.535000000
O     2.025000000     2.938000000    -1.117000000
H     1.675000000     3.567000000    -0.487000000
H     1.252000000     2.589000000    -1.562000000
O    -1.349000000     5.185000000     0.290000000
H    -2.042000000     5.143000000     0.950000000
H    -0.539000000     5.061000000     0.785000000
O     2.947000000    -0.913000000    -3.686000000
H     2.127000000    -0.750000000    -4.151000000
H     2.998000000    -1.866000000    -3.616000000
O     3.181000000     3.734000000    -3.443000000
H     2.757000000     3.509000000    -2.614000000
H     2.521000000     4.237000000    -3.920000000
O     5.878000000    -3.062000000    -2.785000000
H     6.498000000    -3.785000000    -2.875000000
H     5.804000000    -2.698000000    -3.667000000
O    -0.319000000     0.290000000     3.881000000
H     0.410000000    -0.321000000     3.989000000
H    -0.937000000    -0.173000000     3.315000000
O    -1.527000000     2.896000000    -4.253000000
H    -0.923000000     2.821000000    -4.992000000
H    -1.041000000     2.540000000    -3.509000000
O    -0.718000000    -2.641000000     1.647000000
H    -0.373000000    -1.899000000     1.151000000
H    -1.016000000    -3.258000000     0.978000000
O    -7.950000000     3.357000000    -1.415000000
H    -7.242000000     2.889000000    -0.972000000
H    -8.751000000     2.960000000    -1.074000000
