144
-2788.60735
O    -1.651000000     1.352000000    -3.436000000
H    -2.561000000     1.565000000    -3.228000000
H    -1.181000000     1.480000000    -2.612000000
O    -7.405000000    -2.362000000     3.182000000
H    -6.527000000    -2.394000000     2.803000000
H    -7.902000000    -3.015000000     2.689000000
O    -2.436000000    -3.443000000    -2.513000000
H    -2.756000000    -3.681000000    -3.383000000
H    -1.483000000    -3.495000000    -2.586000000
O     0.638000000     4.937000000     0.012000000
H     1.557000000     4.682000000    -0.062000000
H     0.665000000     5.864000000     0.251000000
O     0.014000000    -5.770000000    -1.478000000
H    -0.528000000    -6.548000000    -1.607000000
H     0.029000000    -5.642000000    -0.530000000
O     1.796000000    -3.063000000     4.916000000
H     2.146000000    -2.347000000     4.386000000
H     0.911000000    -2.780000000     5.148000000
O    -0.913000000    -1.978000000     5.904000000
H    -1.258000000    -1.671000000     5.065000000
H    -0.877000000    -1.192000000     6.450000000
O    -1.452000000     2.482000000    -0.859000000
H    -1.342000000     1.669000000    -0.365000000
H    -0.622000000     2.945000000    -0.745000000
O     6.263000000    -0.909000000     1.482000000
H     6.575000000    -0.274000000     2.127000000
H     5.389000000    -1.152000000     1.788000000
O    -4.953000000    -2.884000000     1.992000000
H    -5.556000000    -3.049000000     1.267000000
H    -4.370000000    -2.197000000     1.666000000
O     2.364000000     4.479000000     3.356000000
H     1.413000000     4.591000000     3.357000000
H     2.493000000     3.531000000     3.329000000
O     3.126000000    -3.502000000    -3.791000000
H     3.322000000    -4.428000000    -3.935000000
H     3.831000000    -3.194000000    -3.221000000
O    -4.859000000    -1.264000000    -2.950000000
H    -4.912000000    -0.639000000    -2.228000000
H    -4.564000000    -2.078000000    -2.541000000
O     3.630000000     4.803000000    -0.806000000
H     4.534000000     4.497000000    -0.879000000
H     3.364000000     4.984000000    -1.708000000
O    -2.273000000    -3.643000000     3.020000000
H    -2.996000000    -3.108000000     2.692000000
H    -2.163000000    -3.366000000     3.929000000
O     3.654000000    -1.716000000     1.897000000
H     3.546000000    -1.198000000     2.695000000
H     2.831000000    -1.600000000     1.423000000
O    -4.836000000    -4.690000000     3.939000000
H    -4.619000000    -3.973000000     3.343000000
H    -5.357000000    -5.293000000     3.408000000
O     7.106000000    -1.113000000    -1.326000000
H     6.812000000    -0.765000000    -0.484000000
H     6.343000000    -1.576000000    -1.673000000
O    -2.341000000    -6.453000000     1.712000000
H    -2.424000000    -5.564000000     2.055000000
H    -2.399000000    -6.349000000     0.762000000
O    -4.861000000     0.052000000    -0.368000000
H    -4.504000000     0.019000000     0.520000000
H    -5.742000000     0.412000000    -0.258000000
O    -1.328000000     3.507000000     6.711000000
H    -1.117000000     3.109000000     5.866000000
H    -1.230000000     2.794000000     7.342000000
O    -5.107000000     3.140000000     2.388000000
H    -5.294000000     2.866000000     3.286000000
H    -4.289000000     3.631000000     2.452000000
O     1.665000000    -1.936000000    -7.281000000
H     1.173000000    -2.105000000    -6.478000000
H     2.580000000    -2.069000000    -7.033000000
O     0.249000000    -3.704000000    -3.025000000
H     1.162000000    -3.463000000    -2.864000000
H     0.122000000    -4.510000000    -2.524000000
O    -2.522000000     3.565000000     3.328000000
H    -1.814000000     4.128000000     3.640000000
H    -2.161000000     2.679000000     3.372000000
O    -3.284000000    -0.461000000    -5.357000000
H    -2.556000000    -0.117000000    -4.839000000
H    -3.965000000    -0.656000000    -4.714000000
O     4.826000000    -2.744000000    -1.824000000
H     5.383000000    -3.391000000    -1.391000000
H     4.041000000    -2.702000000    -1.279000000
O     5.955000000     1.628000000    -2.269000000
H     5.436000000     0.829000000    -2.352000000
H     6.487000000     1.652000000    -3.064000000
O     2.961000000     0.686000000    -5.922000000
H     3.490000000    -0.111000000    -5.900000000
H     2.144000000     0.443000000    -5.486000000
O    -4.233000000    -0.542000000     4.678000000
H    -3.495000000    -0.040000000     5.023000000
H    -3.987000000    -0.740000000     3.774000000
O     4.150000000    -1.812000000    -5.739000000
H     4.852000000    -2.239000000    -6.231000000
H     3.886000000    -2.461000000    -5.087000000
O     0.273000000     0.396000000    -5.342000000
H     0.208000000    -0.559000000    -5.332000000
H    -0.421000000     0.690000000    -4.751000000
O    -5.651000000     2.313000000     5.042000000
H    -5.273000000     2.685000000     5.839000000
H    -5.251000000     1.446000000     4.970000000
O    -5.115000000    -3.084000000     6.040000000
H    -4.938000000    -2.227000000     5.652000000
H    -4.872000000    -3.710000000     5.358000000
O     3.275000000    -0.779000000     4.331000000
H     3.516000000     0.109000000     4.066000000
H     3.779000000    -0.935000000     5.130000000
O     2.199000000     4.708000000    -3.193000000
H     2.044000000     3.901000000    -3.684000000
H     1.773000000     5.389000000    -3.712000000
O     1.324000000     1.384000000     6.216000000
H     1.274000000     1.681000000     7.125000000
H     2.103000000     1.815000000     5.866000000
O     6.251000000     4.032000000    -0.957000000
H     6.297000000     3.135000000    -1.289000000
H     7.155000000     4.345000000    -0.986000000
O    -3.021000000    -6.124000000    -1.135000000
H    -2.977000000    -6.523000000    -2.004000000
H    -2.588000000    -5.276000000    -1.239000000
O     0.729000000    -5.503000000    -5.214000000
H     0.528000000    -4.975000000    -4.441000000
H     1.680000000    -5.613000000    -5.189000000
O    -0.223000000     5.300000000     4.016000000
H    -0.575000000     5.428000000     3.136000000
H    -0.279000000     6.164000000     4.425000000
O     2.718000000     3.391000000    -5.835000000
H     2.895000000     2.450000000    -5.807000000
H     3.583000000     3.799000000    -5.794000000
O    -0.134000000    -3.618000000     0.861000000
H    -0.749000000    -2.904000000     0.694000000
H    -0.223000000    -3.798000000     1.796000000
O     4.084000000     1.742000000     4.047000000
H     4.039000000     2.110000000     4.930000000
H     4.763000000     2.254000000     3.608000000
O     2.310000000    -3.017000000    -0.671000000
H     2.514000000    -3.947000000    -0.768000000
H     1.365000000    -2.962000000    -0.814000000
O    -0.662000000     3.653000000    -5.793000000
H    -1.407000000     3.623000000    -6.393000000
H    -0.609000000     2.768000000    -5.432000000
O    -0.344000000    -2.372000000    -5.588000000
H    -0.678000000    -3.011000000    -6.217000000
H    -0.405000000    -2.814000000    -4.741000000
O    -1.247000000     1.236000000     5.273000000
H    -1.524000000     0.647000000     4.571000000
H    -0.326000000     1.019000000     5.418000000
