144
-2777.71723
O    -0.782000000    -1.224000000    -4.928000000
H    -1.188000000    -2.085000000    -4.820000000
H     0.129000000    -1.416000000    -5.150000000
O     7.053000000    -1.421000000     0.320000000
H     7.996000000    -1.314000000     0.441000000
H     6.935000000    -1.447000000    -0.630000000
O    -7.172000000     2.350000000    -1.370000000
H    -7.142000000     2.025000000    -2.270000000
H    -6.306000000     2.152000000    -1.014000000
O    -7.586000000    -1.496000000    -0.583000000
H    -6.659000000    -1.724000000    -0.655000000
H    -7.790000000    -1.613000000     0.345000000
O    -3.747000000    -1.922000000     5.983000000
H    -4.303000000    -2.376000000     6.617000000
H    -4.355000000    -1.394000000     5.466000000
O     4.696000000    -0.170000000     5.239000000
H     5.319000000    -0.142000000     5.964000000
H     5.242000000    -0.231000000     4.455000000
O    -3.366000000     2.514000000    -2.831000000
H    -3.229000000     1.788000000    -3.440000000
H    -3.767000000     2.109000000    -2.062000000
O     0.750000000     2.649000000     2.754000000
H     1.332000000     3.075000000     2.125000000
H    -0.118000000     2.705000000     2.354000000
O    -3.072000000     0.050000000    -4.237000000
H    -2.259000000    -0.445000000    -4.137000000
H    -3.664000000    -0.551000000    -4.691000000
O    -5.017000000    -2.730000000    -0.225000000
H    -4.629000000    -3.290000000     0.447000000
H    -4.624000000    -1.870000000    -0.077000000
O     0.343000000     3.617000000    -0.372000000
H     0.077000000     2.831000000    -0.850000000
H    -0.339000000     4.259000000    -0.570000000
O    -1.032000000     4.033000000    -2.938000000
H    -1.782000000     3.441000000    -2.885000000
H    -0.353000000     3.520000000    -3.377000000
O    -1.837000000     3.858000000     2.413000000
H    -2.426000000     4.076000000     3.136000000
H    -2.150000000     4.390000000     1.681000000
O    -3.855000000    -5.995000000     1.862000000
H    -4.798000000    -6.140000000     1.942000000
H    -3.702000000    -5.160000000     2.304000000
O     3.742000000    -3.412000000    -1.075000000
H     3.221000000    -3.829000000    -1.761000000
H     4.463000000    -2.991000000    -1.544000000
O     5.438000000     3.309000000    -0.949000000
H     5.620000000     2.619000000    -1.587000000
H     5.344000000     4.103000000    -1.476000000
O     2.978000000     1.825000000     4.430000000
H     3.640000000     1.157000000     4.609000000
H     2.452000000     1.458000000     3.720000000
O    -0.312000000     3.423000000     5.258000000
H     0.319000000     2.997000000     5.839000000
H    -0.294000000     2.897000000     4.458000000
O    -1.002000000     1.161000000    -6.359000000
H    -1.041000000     0.533000000    -5.638000000
H    -0.962000000     0.619000000    -7.147000000
O    -5.889000000    -0.880000000     2.420000000
H    -5.081000000    -0.684000000     1.946000000
H    -6.171000000    -1.726000000     2.074000000
O     6.150000000     2.590000000     1.848000000
H     6.427000000     2.658000000     0.934000000
H     5.673000000     3.403000000     2.014000000
O     1.073000000     2.912000000    -4.293000000
H     1.121000000     2.683000000    -5.221000000
H     1.811000000     2.452000000    -3.894000000
O    -4.131000000    -3.930000000    -2.681000000
H    -3.885000000    -4.838000000    -2.502000000
H    -4.344000000    -3.566000000    -1.822000000
O    -0.063000000    -2.533000000    -1.789000000
H    -0.588000000    -1.794000000    -1.481000000
H    -0.215000000    -2.558000000    -2.733000000
O    -4.585000000     2.019000000     2.516000000
H    -4.165000000     1.166000000     2.406000000
H    -4.740000000     2.090000000     3.458000000
O     2.915000000     0.321000000    -5.390000000
H     2.635000000     0.580000000    -6.268000000
H     2.480000000    -0.518000000    -5.238000000
O    -2.023000000    -0.192000000     4.804000000
H    -1.978000000    -0.294000000     3.853000000
H    -2.401000000    -1.015000000     5.115000000
O     5.101000000    -3.396000000     1.275000000
H     4.622000000    -3.472000000     0.450000000
H     5.735000000    -2.696000000     1.120000000
O     1.238000000    -4.366000000     5.057000000
H     1.808000000    -4.536000000     4.307000000
H     0.355000000    -4.346000000     4.687000000
O     4.780000000     2.267000000    -5.743000000
H     5.065000000     1.818000000    -6.538000000
H     4.045000000     1.744000000    -5.422000000
O     1.808000000    -2.285000000    -5.509000000
H     2.704000000    -2.572000000    -5.333000000
H     1.678000000    -2.466000000    -6.440000000
O    -3.556000000    -3.332000000     2.623000000
H    -4.157000000    -3.319000000     3.367000000
H    -3.268000000    -2.423000000     2.532000000
O    -5.937000000    -0.133000000     5.047000000
H    -5.411000000     0.665000000     5.105000000
H    -6.067000000    -0.266000000     4.108000000
O    -7.239000000     2.585000000     2.661000000
H    -7.547000000     1.863000000     2.114000000
H    -6.289000000     2.590000000     2.540000000
O     5.901000000     2.015000000    -3.220000000
H     6.117000000     1.126000000    -3.502000000
H     5.520000000     2.426000000    -3.996000000
O     5.295000000    -3.012000000     4.051000000
H     4.921000000    -2.958000000     3.171000000
H     6.199000000    -3.291000000     3.909000000
O     1.187000000    -3.310000000     0.788000000
H     0.668000000    -2.820000000     0.151000000
H     2.052000000    -3.384000000     0.386000000
O     2.380000000     6.103000000    -2.265000000
H     2.048000000     6.896000000    -2.686000000
H     1.698000000     5.449000000    -2.415000000
O     0.693000000    -0.052000000     6.384000000
H    -0.168000000    -0.078000000     5.967000000
H     1.313000000    -0.116000000     5.657000000
O     2.808000000     3.481000000     0.754000000
H     3.559000000     3.258000000     0.205000000
H     2.066000000     3.498000000     0.150000000
O     5.757000000    -2.296000000    -2.334000000
H     5.629000000    -1.576000000    -2.952000000
H     6.694000000    -2.488000000    -2.380000000
O     4.054000000     4.274000000     3.026000000
H     3.904000000     3.669000000     3.753000000
H     3.406000000     4.023000000     2.368000000
O    -4.619000000     2.291000000     5.240000000
H    -5.143000000     2.858000000     5.807000000
H    -3.927000000     1.957000000     5.810000000
O     6.611000000    -0.194000000     2.636000000
H     6.223000000     0.634000000     2.353000000
H     6.913000000    -0.605000000     1.827000000
O    -4.700000000     1.886000000    -0.225000000
H    -4.199000000     1.074000000    -0.297000000
H    -4.725000000     2.070000000     0.714000000
O    -1.574000000    -4.401000000     5.008000000
H    -1.966000000    -3.868000000     4.316000000
H    -1.904000000    -4.020000000     5.821000000
O     2.410000000    -1.755000000     5.177000000
H     3.295000000    -1.400000000     5.091000000
H     2.378000000    -2.474000000     4.546000000
O     2.389000000    -4.852000000     2.700000000
H     3.183000000    -5.146000000     2.255000000
H     2.005000000    -4.208000000     2.105000000
