144
-2822.45063
O    -1.783000000     0.222000000     4.176000000
H    -1.139000000    -0.476000000     4.055000000
H    -1.281000000     1.031000000     4.075000000
O     1.023000000    -6.807000000    -2.128000000
H     1.962000000    -6.623000000    -2.120000000
H     0.749000000    -6.618000000    -3.025000000
O     3.716000000     2.911000000     3.276000000
H     3.437000000     2.636000000     4.150000000
H     3.176000000     3.677000000     3.082000000
O     4.246000000     0.025000000    -3.008000000
H     4.046000000    -0.876000000    -3.261000000
H     3.401000000     0.474000000    -3.031000000
O     6.087000000     1.733000000     3.031000000
H     5.219000000     2.081000000     3.234000000
H     6.614000000     1.936000000     3.804000000
O     0.662000000    -6.456000000     1.517000000
H     1.302000000    -6.918000000     2.058000000
H     1.122000000    -6.284000000     0.695000000
O     3.533000000     4.035000000    -1.880000000
H     3.919000000     4.125000000    -1.008000000
H     2.685000000     4.473000000    -1.813000000
O     2.179000000    -2.389000000    -3.217000000
H     2.497000000    -2.007000000    -4.035000000
H     1.284000000    -2.665000000    -3.414000000
O    -5.673000000     3.150000000    -1.137000000
H    -5.448000000     2.251000000    -1.374000000
H    -6.606000000     3.224000000    -1.333000000
O     2.743000000    -3.010000000     3.032000000
H     1.869000000    -3.104000000     2.653000000
H     2.759000000    -2.117000000     3.377000000
O     4.669000000    -2.168000000     1.149000000
H     4.035000000    -2.883000000     1.215000000
H     4.575000000    -1.846000000     0.253000000
O    -3.721000000    -8.228000000    -0.910000000
H    -3.247000000    -8.860000000    -0.370000000
H    -3.043000000    -7.633000000    -1.232000000
O     0.052000000    -3.602000000     1.455000000
H    -0.423000000    -3.684000000     0.628000000
H     0.277000000    -4.502000000     1.692000000
O    -3.737000000     0.533000000    -4.261000000
H    -2.820000000     0.362000000    -4.048000000
H    -4.026000000    -0.254000000    -4.724000000
O    -1.800000000     4.156000000     2.868000000
H    -1.657000000     4.231000000     1.925000000
H    -2.693000000     4.473000000     3.002000000
O    -3.934000000     3.672000000     0.746000000
H    -4.018000000     3.099000000     1.508000000
H    -4.702000000     3.474000000     0.211000000
O    -0.809000000     1.605000000    -2.295000000
H     0.110000000     1.465000000    -2.524000000
H    -0.824000000     1.579000000    -1.339000000
O    -0.674000000    -3.397000000    -3.258000000
H    -1.276000000    -3.880000000    -3.824000000
H    -1.094000000    -3.406000000    -2.398000000
O     5.313000000     4.096000000    -3.765000000
H     5.992000000     4.531000000    -3.250000000
H     4.545000000     4.092000000    -3.194000000
O    -2.705000000    -4.707000000    -4.668000000
H    -3.170000000    -4.864000000    -3.846000000
H    -3.358000000    -4.302000000    -5.239000000
O     7.205000000    -0.356000000     2.058000000
H     7.225000000    -0.936000000     2.819000000
H     6.705000000     0.406000000     2.349000000
O     2.036000000     1.936000000    -3.015000000
H     2.655000000     2.534000000    -2.595000000
H     1.685000000     2.435000000    -3.753000000
O    -4.068000000    -1.808000000    -5.575000000
H    -4.187000000    -2.073000000    -4.663000000
H    -4.344000000    -2.571000000    -6.083000000
O    -4.209000000    -0.388000000     3.052000000
H    -4.879000000    -0.799000000     3.598000000
H    -3.440000000    -0.329000000     3.619000000
O    -1.422000000     4.550000000    -2.839000000
H    -2.342000000     4.706000000    -2.625000000
H    -1.448000000     3.915000000    -3.555000000
O     2.164000000    -1.237000000    -5.639000000
H     2.075000000    -1.576000000    -6.529000000
H     1.937000000    -0.310000000    -5.712000000
O    -1.734000000    -6.162000000    -1.223000000
H    -0.980000000    -6.106000000    -1.811000000
H    -1.808000000    -5.286000000    -0.845000000
O     1.101000000     4.994000000    -1.812000000
H     0.356000000     4.623000000    -2.285000000
H     0.705000000     5.500000000    -1.102000000
O    -4.514000000    -6.937000000     1.679000000
H    -4.738000000    -6.010000000     1.756000000
H    -3.917000000    -6.979000000     0.932000000
O     4.332000000     4.100000000     0.648000000
H     3.728000000     4.335000000     1.352000000
H     4.957000000     3.501000000     1.058000000
O    -5.492000000     0.407000000    -1.967000000
H    -4.931000000    -0.102000000    -2.553000000
H    -5.442000000    -0.052000000    -1.129000000
O     2.466000000     5.256000000     2.733000000
H     1.599000000     5.461000000     3.083000000
H     2.971000000     6.059000000     2.857000000
O    -6.098000000     2.054000000     1.815000000
H    -6.049000000     1.428000000     1.092000000
H    -6.272000000     1.515000000     2.586000000
O    -1.353000000     4.108000000     0.005000000
H    -2.280000000     4.049000000     0.238000000
H    -1.353000000     4.238000000    -0.944000000
O     0.155000000    -1.602000000     3.308000000
H     0.723000000    -0.835000000     3.233000000
H    -0.017000000    -1.863000000     2.404000000
O     6.194000000     1.760000000    -2.443000000
H     5.447000000     1.164000000    -2.396000000
H     5.868000000     2.515000000    -2.933000000
O    -4.910000000    -5.321000000    -2.745000000
H    -5.847000000    -5.148000000    -2.651000000
H    -4.611000000    -5.506000000    -1.855000000
O    -0.167000000     2.348000000     3.749000000
H    -0.718000000     3.108000000     3.560000000
H     0.716000000     2.628000000     3.509000000
O    -5.099000000    -3.920000000     2.231000000
H    -5.053000000    -4.097000000     3.171000000
H    -4.818000000    -3.009000000     2.145000000
O     4.148000000    -3.603000000    -1.896000000
H     4.022000000    -4.394000000    -1.372000000
H     3.279000000    -3.406000000    -2.245000000
O    -1.301000000    -0.693000000    -3.960000000
H    -1.182000000    -0.212000000    -3.142000000
H    -1.041000000    -1.590000000    -3.751000000
O     2.941000000     1.527000000     5.589000000
H     2.052000000     1.431000000     5.930000000
H     3.506000000     1.337000000     6.338000000
O    -7.926000000    -2.442000000     0.084000000
H    -7.302000000    -3.046000000    -0.318000000
H    -8.278000000    -1.937000000    -0.649000000
O     3.084000000     6.821000000    -3.266000000
H     2.128000000     6.853000000    -3.287000000
H     3.294000000     5.890000000    -3.345000000
O    -5.104000000    -0.486000000     0.564000000
H    -4.516000000    -1.174000000     0.250000000
H    -4.696000000    -0.174000000     1.372000000
O     3.307000000    -0.285000000     3.599000000
H     3.387000000     0.062000000     2.711000000
H     3.368000000     0.485000000     4.164000000
O    -4.425000000    -4.653000000    -0.273000000
H    -3.891000000    -3.979000000    -0.693000000
H    -4.629000000    -4.293000000     0.590000000
O    -4.271000000    -2.437000000    -2.747000000
H    -4.785000000    -3.203000000    -2.493000000
H    -3.850000000    -2.152000000    -1.936000000
