144
-2843.02411
O    -4.460000000    -0.037000000    -2.037000000
H    -3.782000000     0.229000000    -2.658000000
H    -4.433000000    -0.994000000    -2.049000000
O    -3.289000000    -1.911000000     4.765000000
H    -2.731000000    -2.624000000     4.456000000
H    -4.040000000    -2.349000000     5.165000000
O    -0.579000000    -5.391000000    -4.062000000
H     0.053000000    -6.079000000    -4.269000000
H    -1.433000000    -5.795000000    -4.216000000
O    -5.044000000    -6.048000000    -2.177000000
H    -5.260000000    -6.975000000    -2.069000000
H    -4.366000000    -5.883000000    -1.522000000
O     7.443000000     2.739000000     1.864000000
H     6.739000000     3.372000000     1.729000000
H     8.245000000     3.228000000     1.678000000
O     3.463000000     5.021000000    -0.665000000
H     2.876000000     4.563000000    -1.267000000
H     3.788000000     5.767000000    -1.169000000
O     4.119000000    -2.664000000    -3.509000000
H     4.193000000    -3.510000000    -3.953000000
H     3.211000000    -2.397000000    -3.652000000
O     5.715000000    -0.223000000     1.999000000
H     5.282000000    -1.076000000     1.983000000
H     5.317000000     0.234000000     2.740000000
O    -4.222000000     2.568000000    -0.480000000
H    -3.846000000     1.715000000    -0.695000000
H    -4.514000000     2.920000000    -1.321000000
O    -0.157000000    -0.992000000     5.592000000
H     0.231000000    -0.857000000     4.727000000
H    -0.944000000    -0.448000000     5.589000000
O     3.360000000    -2.668000000     4.318000000
H     2.614000000    -2.082000000     4.191000000
H     3.826000000    -2.647000000     3.482000000
O     0.576000000    -3.505000000     1.232000000
H     0.142000000    -3.742000000     0.413000000
H     1.509000000    -3.611000000     1.048000000
O    -2.343000000    -1.487000000    -6.178000000
H    -2.336000000    -2.110000000    -6.905000000
H    -2.048000000    -1.996000000    -5.423000000
O    -3.304000000     2.934000000     3.028000000
H    -3.670000000     3.479000000     3.725000000
H    -3.771000000     2.102000000     3.104000000
O    -3.201000000     4.878000000     0.964000000
H    -2.705000000     4.689000000     1.760000000
H    -3.357000000     4.020000000     0.569000000
O     0.335000000     1.320000000    -5.126000000
H     0.875000000     1.399000000    -4.339000000
H     0.961000000     1.151000000    -5.830000000
O    -1.058000000    -2.608000000    -3.575000000
H    -1.170000000    -3.518000000    -3.852000000
H    -1.706000000    -2.487000000    -2.881000000
O     6.073000000     2.319000000     4.165000000
H     6.441000000     2.511000000     3.303000000
H     6.830000000     2.083000000     4.701000000
O    -3.193000000    -5.802000000    -4.501000000
H    -3.987000000    -6.238000000    -4.808000000
H    -3.497000000    -4.959000000    -4.164000000
O    -3.700000000    -5.051000000     2.703000000
H    -3.633000000    -5.000000000     3.657000000
H    -3.104000000    -4.373000000     2.385000000
O    -1.626000000     4.130000000    -1.740000000
H    -2.303000000     3.664000000    -1.249000000
H    -2.108000000     4.617000000    -2.408000000
O    -6.085000000    -3.476000000     2.377000000
H    -5.956000000    -2.530000000     2.448000000
H    -5.210000000    -3.846000000     2.494000000
O     5.095000000     2.374000000    -2.975000000
H     4.952000000     3.276000000    -3.263000000
H     5.345000000     2.453000000    -2.054000000
O    -2.143000000     0.358000000    -3.881000000
H    -1.471000000     0.015000000    -3.292000000
H    -1.651000000     0.733000000    -4.612000000
O     6.647000000    -2.315000000    -0.156000000
H     5.876000000    -2.586000000     0.341000000
H     6.767000000    -1.393000000     0.071000000
O    -4.264000000     0.466000000     3.632000000
H    -4.812000000     0.131000000     2.922000000
H    -3.719000000    -0.279000000     3.886000000
O     1.176000000     4.023000000    -2.084000000
H     0.306000000     4.370000000    -1.887000000
H     1.029000000     3.096000000    -2.268000000
O     1.719000000    -1.650000000    -3.918000000
H     0.898000000    -2.144000000    -3.916000000
H     1.736000000    -1.218000000    -4.772000000
O     0.237000000    -5.077000000    -1.495000000
H     0.371000000    -6.024000000    -1.517000000
H     0.004000000    -4.847000000    -2.395000000
O    -0.926000000     3.665000000     3.642000000
H    -1.808000000     3.375000000     3.410000000
H    -0.456000000     3.695000000     2.809000000
O     5.566000000     4.601000000     0.964000000
H     6.103000000     5.393000000     0.937000000
H     4.813000000     4.803000000     0.409000000
O     1.551000000     6.479000000     0.637000000
H     2.212000000     5.801000000     0.498000000
H     1.915000000     7.032000000     1.328000000
O    -5.871000000     2.393000000     1.689000000
H    -5.421000000     3.072000000     2.192000000
H    -5.251000000     2.155000000     1.000000000
O    -0.253000000     4.599000000     0.947000000
H    -0.621000000     4.633000000     0.064000000
H     0.244000000     5.412000000     1.031000000
O    -1.588000000    -3.206000000     2.731000000
H    -0.720000000    -3.245000000     2.330000000
H    -2.115000000    -2.701000000     2.112000000
O     5.470000000     2.030000000    -0.272000000
H     5.566000000     1.271000000     0.302000000
H     5.217000000     2.743000000     0.314000000
O    -2.110000000    -7.372000000    -0.667000000
H    -2.911000000    -7.802000000    -0.966000000
H    -2.359000000    -6.454000000    -0.555000000
O     1.074000000     1.898000000     3.943000000
H     0.352000000     2.520000000     4.025000000
H     1.863000000     2.433000000     4.035000000
O    -7.996000000    -3.925000000     0.355000000
H    -7.231000000    -3.880000000     0.928000000
H    -8.177000000    -3.013000000     0.125000000
O     4.372000000    -3.019000000     1.556000000
H     4.572000000    -3.910000000     1.843000000
H     3.783000000    -3.135000000     0.810000000
O     2.523000000    -3.988000000    -0.633000000
H     2.819000000    -3.596000000    -1.454000000
H     1.747000000    -4.493000000    -0.874000000
O     1.879000000     1.573000000    -2.915000000
H     2.820000000     1.691000000    -3.043000000
H     1.812000000     0.906000000    -2.231000000
O     3.493000000     3.772000000     4.284000000
H     4.347000000     3.340000000     4.260000000
H     3.692000000     4.684000000     4.496000000
O    -5.338000000    -0.823000000     1.617000000
H    -4.498000000    -1.119000000     1.266000000
H    -5.975000000    -1.054000000     0.940000000
O     1.255000000    -0.732000000     3.240000000
H     1.364000000     0.165000000     3.557000000
H     0.801000000    -0.636000000     2.403000000
O    -3.326000000    -5.037000000    -0.247000000
H    -3.379000000    -4.082000000    -0.289000000
H    -3.406000000    -5.241000000     0.684000000
O    -4.305000000    -3.661000000    -3.483000000
H    -4.668000000    -4.103000000    -2.716000000
H    -3.983000000    -2.824000000    -3.148000000
O    -2.845000000     0.601000000     5.951000000
H    -3.135000000    -0.292000000     6.137000000
H    -3.412000000     0.894000000     5.237000000
