144
-2835.18630
O    -4.626000000     0.574000000    -1.590000000
H    -4.106000000     1.321000000    -1.293000000
H    -4.358000000    -0.147000000    -1.021000000
O     3.180000000    -7.812000000     2.444000000
H     3.143000000    -8.434000000     1.717000000
H     2.710000000    -7.042000000     2.125000000
O     4.128000000    -1.505000000     2.144000000
H     4.678000000    -2.014000000     2.740000000
H     3.467000000    -2.126000000     1.839000000
O     0.711000000     3.014000000     4.117000000
H     0.911000000     2.242000000     3.586000000
H     1.416000000     3.047000000     4.764000000
O    -0.508000000    -7.060000000     1.274000000
H    -0.541000000    -7.951000000     0.925000000
H    -1.387000000    -6.712000000     1.126000000
O     3.683000000    -3.790000000    -0.587000000
H     2.936000000    -3.511000000    -0.058000000
H     4.240000000    -4.276000000     0.022000000
O     1.871000000    -5.717000000     1.146000000
H     1.087000000    -6.256000000     1.247000000
H     1.566000000    -4.822000000     1.297000000
O     5.020000000    -1.590000000    -1.884000000
H     5.789000000    -2.120000000    -2.090000000
H     4.420000000    -2.196000000    -1.450000000
O    -2.713000000    -2.109000000    -2.647000000
H    -3.399000000    -2.040000000    -3.311000000
H    -3.085000000    -1.683000000    -1.875000000
O    -5.178000000    -1.202000000    -3.665000000
H    -5.241000000    -0.653000000    -4.447000000
H    -5.083000000    -0.582000000    -2.943000000
O    -4.021000000    -0.442000000     3.043000000
H    -4.884000000    -0.714000000     3.355000000
H    -3.815000000     0.338000000     3.558000000
O     4.107000000    -5.742000000     4.325000000
H     3.651000000    -4.930000000     4.108000000
H     3.414000000    -6.339000000     4.607000000
O     2.950000000    -0.814000000    -3.410000000
H     3.766000000    -0.847000000    -2.911000000
H     2.433000000    -1.545000000    -3.072000000
O     3.731000000    -2.584000000     6.015000000
H     3.246000000    -2.889000000     6.782000000
H     3.326000000    -3.040000000     5.278000000
O     5.437000000     2.908000000     0.272000000
H     5.312000000     1.959000000     0.271000000
H     6.386000000     3.025000000     0.237000000
O    -0.743000000     0.553000000    -5.807000000
H    -0.283000000     0.321000000    -5.000000000
H    -1.494000000    -0.040000000    -5.834000000
O    -4.849000000    -4.790000000     0.709000000
H    -5.177000000    -5.488000000     0.141000000
H    -5.016000000    -3.985000000     0.220000000
O    -1.639000000     5.738000000    -3.379000000
H    -1.010000000     5.853000000    -4.092000000
H    -1.123000000     5.864000000    -2.583000000
O    -0.011000000    -1.268000000    -2.946000000
H    -0.938000000    -1.503000000    -2.979000000
H     0.038000000    -0.579000000    -2.284000000
O    -0.082000000     6.490000000    -1.151000000
H    -0.129000000     5.587000000    -0.838000000
H     0.392000000     6.957000000    -0.463000000
O    -3.435000000     1.887000000     4.278000000
H    -3.052000000     2.116000000     5.125000000
H    -3.365000000     2.688000000     3.759000000
O    -2.552000000     4.994000000     0.857000000
H    -2.553000000     5.951000000     0.842000000
H    -2.700000000     4.768000000     1.775000000
O     0.604000000    -4.971000000    -1.558000000
H     0.604000000    -5.076000000    -0.607000000
H    -0.313000000    -5.075000000    -1.811000000
O    -4.943000000    -3.329000000     3.732000000
H    -5.741000000    -3.083000000     3.265000000
H    -4.500000000    -3.942000000     3.145000000
O    -4.211000000     2.777000000     0.315000000
H    -5.109000000     3.094000000     0.219000000
H    -3.712000000     3.547000000     0.584000000
O     3.680000000     4.481000000     1.861000000
H     3.888000000     4.576000000     2.790000000
H     4.200000000     3.730000000     1.575000000
O    -1.925000000     3.049000000    -5.782000000
H    -1.342000000     3.800000000    -5.676000000
H    -1.344000000     2.289000000    -5.751000000
O    -4.352000000    -1.298000000     0.239000000
H    -3.894000000    -1.018000000     1.031000000
H    -5.232000000    -1.527000000     0.539000000
O    -7.152000000     0.914000000    -0.564000000
H    -7.858000000     0.540000000    -1.091000000
H    -6.381000000     0.871000000    -1.130000000
O     3.823000000     2.846000000    -1.995000000
H     4.101000000     3.757000000    -2.085000000
H     4.523000000     2.430000000    -1.491000000
O    -4.290000000    -6.496000000     2.929000000
H    -3.433000000    -6.126000000     3.144000000
H    -4.572000000    -6.012000000     2.153000000
O    -3.562000000     3.874000000    -3.010000000
H    -2.944000000     4.569000000    -3.236000000
H    -3.040000000     3.238000000    -2.521000000
O    -0.074000000    -4.883000000     4.769000000
H     0.206000000    -5.636000000     5.289000000
H    -0.876000000    -5.176000000     4.335000000
O     3.141000000    -6.861000000    -1.106000000
H     4.029000000    -6.519000000    -1.004000000
H     2.614000000    -6.344000000    -0.498000000
O     0.423000000     7.435000000     1.154000000
H    -0.423000000     7.847000000     1.330000000
H     0.418000000     6.639000000     1.685000000
O     2.363000000    -3.650000000     3.965000000
H     2.157000000    -3.516000000     3.040000000
H     1.584000000    -4.074000000     4.325000000
O    -6.205000000     1.611000000     2.128000000
H    -6.279000000     1.379000000     1.202000000
H    -5.265000000     1.577000000     2.308000000
O     5.490000000    -4.511000000     1.398000000
H     5.301000000    -4.283000000     2.308000000
H     6.159000000    -3.881000000     1.127000000
O     1.122000000     5.165000000     2.681000000
H     1.774000000     4.683000000     2.173000000
H     0.796000000     4.529000000     3.317000000
O     4.873000000     0.403000000     0.209000000
H     4.618000000    -0.221000000     0.889000000
H     5.206000000    -0.142000000    -0.504000000
O     3.424000000     1.464000000    -4.486000000
H     3.521000000     1.867000000    -3.624000000
H     3.029000000     0.610000000    -4.309000000
O     5.746000000    -2.833000000     3.945000000
H     5.074000000    -3.016000000     4.601000000
H     6.322000000    -2.193000000     4.363000000
O    -1.998000000    -4.552000000     2.948000000
H    -2.041000000    -3.730000000     3.436000000
H    -1.225000000    -4.460000000     2.391000000
O     1.910000000     0.888000000     2.644000000
H     1.999000000    -0.044000000     2.843000000
H     1.527000000     0.910000000     1.767000000
O    -2.299000000    -5.341000000     0.029000000
H    -1.623000000    -4.815000000     0.457000000
H    -3.116000000    -5.069000000     0.447000000
O    -0.009000000    -2.317000000     5.953000000
H    -0.213000000    -3.145000000     5.518000000
H    -0.639000000    -1.694000000     5.592000000
O     4.753000000     1.330000000     3.476000000
H     4.110000000     1.245000000     2.773000000
H     5.018000000     0.430000000     3.668000000
O    -2.233000000    -2.363000000     4.347000000
H    -2.497000000    -1.478000000     4.095000000
H    -3.043000000    -2.782000000     4.636000000
