144
-2848.23918
O    -0.899000000     2.043000000    -4.328000000
H    -1.512000000     2.744000000    -4.552000000
H    -1.352000000     1.535000000    -3.656000000
O    -2.265000000     0.507000000     4.776000000
H    -3.094000000     0.758000000     4.368000000
H    -2.229000000    -0.445000000     4.678000000
O    -2.402000000     3.984000000     3.943000000
H    -1.670000000     3.486000000     4.308000000
H    -2.304000000     4.861000000     4.314000000
O     1.757000000    -2.802000000     2.734000000
H     1.455000000    -3.698000000     2.583000000
H     1.583000000    -2.644000000     3.662000000
O     1.086000000     3.856000000    -5.598000000
H     1.613000000     3.060000000    -5.678000000
H     0.182000000     3.543000000    -5.577000000
O    -3.058000000    -2.356000000    -2.263000000
H    -2.157000000    -2.589000000    -2.040000000
H    -3.040000000    -2.212000000    -3.210000000
O     2.925000000    -6.754000000     0.572000000
H     3.216000000    -6.511000000    -0.307000000
H     2.985000000    -7.709000000     0.589000000
O     4.442000000     4.884000000    -2.900000000
H     4.883000000     4.185000000    -3.384000000
H     5.084000000     5.166000000    -2.248000000
O     1.075000000    -5.374000000     2.101000000
H     1.797000000    -5.727000000     1.581000000
H     0.561000000    -4.860000000     1.478000000
O     5.014000000    -0.428000000    -3.937000000
H     4.673000000     0.395000000    -3.588000000
H     4.355000000    -1.081000000    -3.699000000
O    -4.703000000    -2.872000000     0.128000000
H    -4.376000000    -2.901000000    -0.771000000
H    -4.353000000    -3.664000000     0.535000000
O    -3.144000000     4.715000000     0.815000000
H    -3.889000000     4.385000000     1.318000000
H    -2.441000000     4.802000000     1.459000000
O     2.502000000    -0.606000000    -5.801000000
H     2.777000000    -0.942000000    -6.654000000
H     2.606000000     0.343000000    -5.872000000
O    -0.542000000     5.640000000    -1.777000000
H    -0.101000000     5.443000000    -0.950000000
H     0.134000000     5.516000000    -2.444000000
O    -2.341000000    -1.509000000    -4.904000000
H    -1.443000000    -1.423000000    -5.224000000
H    -2.881000000    -1.146000000    -5.606000000
O     3.141000000    -2.417000000    -3.782000000
H     2.844000000    -1.752000000    -4.404000000
H     3.645000000    -3.034000000    -4.313000000
O     3.982000000    -6.264000000    -2.021000000
H     3.600000000    -5.393000000    -1.908000000
H     4.505000000    -6.194000000    -2.820000000
O    -3.295000000    -5.033000000     1.014000000
H    -3.155000000    -5.609000000     1.766000000
H    -2.433000000    -4.658000000     0.836000000
O     1.407000000     6.713000000    -0.001000000
H     1.921000000     6.976000000    -0.765000000
H     1.911000000     7.032000000     0.747000000
O    -1.509000000    -6.098000000    -4.254000000
H    -0.795000000    -5.477000000    -4.110000000
H    -2.108000000    -5.947000000    -3.522000000
O    -2.400000000     4.207000000    -4.548000000
H    -2.712000000     4.323000000    -3.651000000
H    -2.590000000     5.040000000    -4.979000000
O    -0.256000000    -3.664000000     5.992000000
H    -0.571000000    -3.716000000     5.089000000
H    -1.052000000    -3.660000000     6.523000000
O     3.057000000     2.112000000    -5.802000000
H     3.715000000     2.283000000    -5.128000000
H     3.481000000     2.370000000    -6.620000000
O     3.758000000     5.432000000     3.322000000
H     3.210000000     6.057000000     2.848000000
H     3.181000000     4.686000000     3.489000000
O    -4.685000000    -4.909000000     4.157000000
H    -5.502000000    -4.533000000     3.828000000
H    -4.363000000    -5.451000000     3.438000000
O     1.135000000    -8.800000000    -2.041000000
H     1.588000000    -8.473000000    -2.817000000
H     0.647000000    -8.045000000    -1.712000000
O     2.043000000     4.033000000     4.876000000
H     2.757000000     3.780000000     5.461000000
H     1.341000000     3.413000000     5.073000000
O     4.676000000     1.165000000    -0.097000000
H     4.211000000     1.536000000     0.653000000
H     5.601000000     1.229000000     0.139000000
O     5.329000000    -1.838000000    -0.399000000
H     4.519000000    -2.290000000    -0.636000000
H     5.093000000    -0.910000000    -0.397000000
O     1.705000000    -1.761000000     5.810000000
H     1.114000000    -2.224000000     6.404000000
H     2.532000000    -2.238000000     5.876000000
O     3.847000000     1.567000000    -2.512000000
H     3.127000000     2.190000000    -2.414000000
H     4.104000000     1.355000000    -1.614000000
O    -3.700000000    -1.840000000     3.776000000
H    -3.972000000    -1.264000000     3.061000000
H    -4.501000000    -2.296000000     4.033000000
O     2.971000000    -3.561000000    -1.136000000
H     2.033000000    -3.637000000    -0.959000000
H     3.021000000    -3.213000000    -2.026000000
O    -0.267000000    -0.144000000    -5.861000000
H     0.609000000    -0.491000000    -5.695000000
H    -0.261000000     0.724000000    -5.457000000
O    -5.291000000     0.692000000     2.133000000
H    -5.313000000     0.119000000     1.367000000
H    -5.171000000     1.571000000     1.771000000
O    -0.402000000    -6.341000000    -1.323000000
H    -0.061000000    -5.484000000    -1.065000000
H    -1.346000000    -6.209000000    -1.402000000
O     4.341000000    -0.036000000     3.872000000
H     3.767000000     0.417000000     4.490000000
H     3.933000000     0.107000000     3.018000000
O     1.758000000     5.198000000    -3.133000000
H     2.713000000     5.246000000    -3.092000000
H     1.579000000     4.582000000    -3.843000000
O    -3.278000000    -7.147000000     2.947000000
H    -3.805000000    -7.920000000     3.150000000
H    -2.386000000    -7.395000000     3.190000000
O    -1.814000000     7.164000000     0.876000000
H    -1.303000000     7.156000000     0.066000000
H    -2.500000000     6.512000000     0.733000000
O     1.715000000     0.508000000     4.268000000
H     1.667000000     0.195000000     3.365000000
H     1.617000000    -0.281000000     4.801000000
O    -0.250000000     2.180000000     5.324000000
H     0.322000000     1.556000000     4.878000000
H    -1.097000000     1.736000000     5.373000000
O    -3.042000000     4.752000000    -2.049000000
H    -2.139000000     5.064000000    -2.113000000
H    -3.148000000     4.515000000    -1.128000000
O     2.472000000    -0.536000000     1.763000000
H     1.996000000    -0.542000000     0.932000000
H     2.398000000    -1.433000000     2.089000000
O    -4.998000000    -7.081000000    -0.127000000
H    -5.635000000    -7.321000000     0.545000000
H    -4.588000000    -6.282000000     0.206000000
O    -1.379000000    -3.748000000     3.275000000
H    -1.332000000    -3.911000000     2.333000000
H    -2.116000000    -3.146000000     3.377000000
O    -0.631000000    -7.343000000     3.268000000
H    -0.276000000    -6.529000000     2.911000000
H     0.140000000    -7.882000000     3.446000000
O     0.194000000    -4.117000000    -3.668000000
H     0.945000000    -3.787000000    -4.161000000
H     0.491000000    -4.128000000    -2.758000000
