144
-2808.83872
O     4.167000000    -2.543000000    -2.632000000
H     3.372000000    -2.803000000    -2.167000000
H     4.091000000    -2.962000000    -3.489000000
O    -3.762000000    -0.576000000     0.110000000
H    -2.840000000    -0.743000000     0.306000000
H    -3.762000000     0.269000000    -0.340000000
O     3.779000000    -2.449000000     1.720000000
H     4.598000000    -2.908000000     1.532000000
H     3.312000000    -3.030000000     2.321000000
O     0.542000000    -2.205000000     5.425000000
H     0.576000000    -2.029000000     6.365000000
H     0.027000000    -3.009000000     5.350000000
O    -4.637000000    -1.485000000    -5.690000000
H    -4.449000000    -0.714000000    -6.225000000
H    -4.750000000    -1.140000000    -4.804000000
O    -2.858000000     2.142000000    -4.512000000
H    -1.935000000     1.895000000    -4.467000000
H    -3.137000000     1.872000000    -5.388000000
O     2.428000000     4.989000000    -3.730000000
H     2.811000000     4.638000000    -2.926000000
H     3.034000000     4.720000000    -4.420000000
O    -0.870000000    -7.024000000     5.016000000
H    -0.656000000    -6.263000000     4.476000000
H    -0.053000000    -7.234000000     5.469000000
O     1.091000000    -6.043000000     1.398000000
H     2.045000000    -5.967000000     1.403000000
H     0.785000000    -5.193000000     1.082000000
O    -0.871000000     6.349000000     3.319000000
H    -0.210000000     7.042000000     3.327000000
H    -0.449000000     5.620000000     2.865000000
O     1.599000000    -0.848000000    -4.188000000
H     1.681000000    -0.193000000    -4.881000000
H     0.694000000    -1.154000000    -4.253000000
O     3.780000000    -6.334000000     1.641000000
H     4.416000000    -6.086000000     0.970000000
H     4.304000000    -6.758000000     2.321000000
O     0.786000000    -4.628000000    -4.849000000
H    -0.065000000    -4.421000000    -4.462000000
H     0.613000000    -4.690000000    -5.788000000
O    -3.897000000    -7.002000000    -0.794000000
H    -3.465000000    -6.773000000     0.029000000
H    -4.680000000    -6.451000000    -0.815000000
O    -4.157000000     3.942000000    -0.547000000
H    -4.970000000     4.363000000    -0.269000000
H    -3.741000000     3.660000000     0.268000000
O     0.832000000     1.182000000    -5.861000000
H     0.857000000     2.102000000    -5.598000000
H     1.417000000     1.132000000    -6.616000000
O     3.515000000    -3.565000000     6.314000000
H     3.867000000    -4.444000000     6.450000000
H     3.477000000    -3.465000000     5.363000000
O    -3.617000000     1.477000000    -1.818000000
H    -3.807000000     2.403000000    -1.665000000
H    -3.338000000     1.439000000    -2.733000000
O     2.920000000     6.086000000     1.300000000
H     3.092000000     5.318000000     0.755000000
H     3.538000000     6.007000000     2.027000000
O    -2.447000000     6.976000000    -4.598000000
H    -2.054000000     6.226000000    -4.152000000
H    -1.733000000     7.349000000    -5.115000000
O    -2.188000000    -3.001000000    -3.824000000
H    -2.724000000    -2.379000000    -3.331000000
H    -2.677000000    -3.149000000    -4.633000000
O     4.547000000    -5.814000000    -1.799000000
H     3.909000000    -5.113000000    -1.669000000
H     4.033000000    -6.545000000    -2.144000000
O     4.078000000     3.949000000     0.245000000
H     3.917000000     3.222000000     0.846000000
H     3.998000000     3.562000000    -0.626000000
O    -3.720000000    -3.463000000    -1.027000000
H    -3.238000000    -4.237000000    -1.321000000
H    -3.729000000    -3.535000000    -0.073000000
O     0.757000000     7.011000000    -1.006000000
H     1.028000000     7.866000000    -0.671000000
H     1.550000000     6.476000000    -0.970000000
O    -4.003000000    -1.302000000    -2.813000000
H    -4.350000000    -1.798000000    -2.072000000
H    -3.390000000    -0.681000000    -2.420000000
O    -0.646000000    -7.139000000    -3.416000000
H    -0.637000000    -6.413000000    -2.791000000
H     0.276000000    -7.284000000    -3.627000000
O     0.883000000     4.192000000     5.411000000
H     0.325000000     4.908000000     5.715000000
H     0.296000000     3.630000000     4.905000000
O    -2.576000000    -6.879000000     1.594000000
H    -1.643000000    -6.669000000     1.623000000
H    -2.770000000    -7.230000000     2.463000000
O    -0.821000000     2.835000000     3.784000000
H    -0.753000000     1.882000000     3.726000000
H    -1.334000000     3.086000000     3.015000000
O     3.490000000     0.472000000    -2.918000000
H     3.864000000    -0.219000000    -2.371000000
H     2.896000000     0.012000000    -3.511000000
O     2.358000000    -4.311000000    -1.456000000
H     1.825000000    -4.020000000    -0.716000000
H     1.929000000    -5.111000000    -1.760000000
O     4.528000000     3.237000000    -2.650000000
H     4.110000000     2.408000000    -2.419000000
H     5.465000000     3.041000000    -2.654000000
O     5.612000000    -1.894000000     4.699000000
H     6.004000000    -2.749000000     4.518000000
H     4.725000000    -1.958000000     4.345000000
O    -3.348000000    -4.119000000     1.926000000
H    -4.125000000    -4.231000000     2.474000000
H    -2.989000000    -5.002000000     1.836000000
O    -1.540000000    -4.946000000    -1.839000000
H    -0.869000000    -4.665000000    -1.216000000
H    -1.634000000    -4.205000000    -2.439000000
O     4.158000000     1.268000000     4.264000000
H     4.419000000     1.330000000     5.183000000
H     3.633000000     0.469000000     4.218000000
O     2.734000000    -1.036000000     3.871000000
H     2.595000000    -1.514000000     3.054000000
H     2.100000000    -1.413000000     4.481000000
O     2.686000000    -4.316000000     3.624000000
H     2.662000000    -5.253000000     3.430000000
H     1.870000000    -3.975000000     3.257000000
O    -1.891000000     6.748000000    -0.682000000
H    -0.973000000     6.841000000    -0.936000000
H    -2.195000000     5.978000000    -1.163000000
O    -0.670000000     0.040000000     4.158000000
H     0.116000000    -0.485000000     4.306000000
H    -1.227000000    -0.512000000     3.610000000
O    -3.366000000     3.416000000     2.016000000
H    -4.017000000     3.868000000     2.553000000
H    -3.411000000     2.504000000     2.303000000
O     3.459000000     1.711000000     1.652000000
H     2.515000000     1.586000000     1.555000000
H     3.612000000     1.654000000     2.595000000
O    -3.136000000     4.862000000    -2.810000000
H    -3.644000000     4.378000000    -2.158000000
H    -2.422000000     4.269000000    -3.045000000
O     4.469000000    -0.337000000    -0.134000000
H     4.154000000     0.355000000     0.448000000
H     3.947000000    -1.104000000     0.102000000
O    -0.575000000    -4.571000000     3.731000000
H    -0.049000000    -4.090000000     3.092000000
H    -1.467000000    -4.250000000     3.597000000
O     0.036000000     3.948000000    -4.963000000
H     0.458000000     4.213000000    -5.780000000
H     0.713000000     4.060000000    -4.296000000
O    -2.477000000    -1.793000000     3.195000000
H    -2.565000000    -2.315000000     3.993000000
H    -2.583000000    -2.423000000     2.483000000
