144
-2840.50380
O    -3.078000000     0.962000000     2.512000000
H    -3.585000000     0.226000000     2.171000000
H    -2.186000000     0.624000000     2.589000000
O     6.151000000    -1.730000000    -3.065000000
H     5.941000000    -1.075000000    -2.399000000
H     5.299000000    -2.012000000    -3.400000000
O    -0.770000000    -5.435000000    -4.908000000
H    -0.300000000    -6.269000000    -4.923000000
H    -0.092000000    -4.781000000    -4.739000000
O    -4.858000000    -0.923000000     0.998000000
H    -5.143000000    -1.727000000     1.432000000
H    -4.032000000    -1.158000000     0.576000000
O     3.727000000    -1.194000000    -1.415000000
H     4.079000000    -1.022000000    -0.542000000
H     3.246000000    -2.016000000    -1.323000000
O     1.366000000    -1.544000000     6.097000000
H     2.170000000    -1.575000000     6.615000000
H     1.166000000    -2.462000000     5.912000000
O     0.751000000     4.504000000    -0.693000000
H     0.563000000     5.005000000     0.100000000
H     1.707000000     4.499000000    -0.752000000
O     3.968000000    -1.835000000    -4.937000000
H     3.269000000    -2.415000000    -4.634000000
H     3.665000000    -0.956000000    -4.710000000
O     1.066000000    -6.480000000     4.203000000
H     1.708000000    -6.354000000     4.902000000
H     0.808000000    -5.593000000     3.952000000
O     1.438000000    -5.647000000     0.389000000
H     1.794000000    -5.913000000    -0.458000000
H     1.570000000    -4.699000000     0.418000000
O    -5.770000000     6.166000000    -0.917000000
H    -6.407000000     5.813000000    -1.539000000
H    -5.294000000     5.398000000    -0.601000000
O     0.631000000     1.101000000    -5.248000000
H     1.584000000     1.015000000    -5.253000000
H     0.468000000     1.930000000    -4.798000000
O    -0.223000000    -2.161000000    -4.782000000
H    -0.047000000    -1.677000000    -5.589000000
H    -1.128000000    -1.941000000    -4.563000000
O    -4.649000000     0.317000000    -2.427000000
H    -5.362000000     0.500000000    -1.816000000
H    -4.327000000     1.180000000    -2.685000000
O    -0.298000000    -0.473000000    -7.193000000
H     0.508000000    -0.555000000    -7.703000000
H    -0.057000000     0.084000000    -6.453000000
O    -3.004000000    -1.771000000    -3.943000000
H    -3.901000000    -1.589000000    -3.665000000
H    -2.711000000    -2.474000000    -3.363000000
O     3.915000000    -5.364000000    -3.074000000
H     3.175000000    -4.787000000    -3.267000000
H     4.327000000    -5.518000000    -3.924000000
O     3.719000000     3.873000000    -0.971000000
H     3.986000000     3.991000000    -1.882000000
H     3.339000000     2.994000000    -0.944000000
O    -2.552000000    -2.423000000    -0.748000000
H    -2.058000000    -1.681000000    -1.098000000
H    -2.124000000    -3.193000000    -1.121000000
O    -3.233000000     5.267000000     0.200000000
H    -2.400000000     5.613000000    -0.120000000
H    -3.008000000     4.823000000     1.018000000
O    -2.032000000    -1.819000000     3.982000000
H    -1.763000000    -2.379000000     3.254000000
H    -2.790000000    -2.266000000     4.361000000
O     1.499000000     4.307000000     3.965000000
H     1.382000000     5.031000000     3.350000000
H     0.658000000     3.850000000     3.960000000
O    -6.309000000     1.281000000    -0.285000000
H    -7.162000000     0.865000000    -0.410000000
H    -5.742000000     0.575000000     0.027000000
O     1.900000000    -8.053000000     1.589000000
H     1.472000000    -8.177000000     2.437000000
H     1.651000000    -7.168000000     1.322000000
O    -0.557000000     2.699000000     4.191000000
H    -0.782000000     2.983000000     5.076000000
H    -0.477000000     1.747000000     4.258000000
O     2.699000000     1.342000000    -1.143000000
H     1.850000000     1.174000000    -0.733000000
H     2.978000000     0.487000000    -1.473000000
O     1.836000000    -3.264000000    -3.349000000
H     1.487000000    -3.448000000    -2.476000000
H     1.107000000    -2.855000000    -3.816000000
O     0.618000000    -6.975000000    -2.396000000
H     0.477000000    -7.705000000    -1.793000000
H     0.095000000    -7.197000000    -3.166000000
O     3.385000000     1.255000000    -4.010000000
H     3.014000000     1.301000000    -3.129000000
H     4.264000000     1.623000000    -3.919000000
O     2.138000000     2.293000000     5.789000000
H     2.089000000     3.034000000     5.185000000
H     1.250000000     2.208000000     6.136000000
O    -1.217000000    -5.735000000     1.234000000
H    -0.343000000    -6.077000000     1.045000000
H    -1.723000000    -6.504000000     1.495000000
O     4.852000000    -6.960000000     3.233000000
H     5.061000000    -6.094000000     2.882000000
H     4.689000000    -7.499000000     2.459000000
O     3.454000000     0.210000000     4.270000000
H     3.092000000     1.029000000     4.607000000
H     2.930000000    -0.474000000     4.689000000
O     6.999000000    -3.326000000    -1.010000000
H     6.654000000    -2.869000000    -1.777000000
H     6.464000000    -4.117000000    -0.942000000
O    -0.455000000     6.397000000     1.153000000
H     0.268000000     6.900000000     1.530000000
H    -1.055000000     7.060000000     0.811000000
O    -0.995000000    -4.353000000    -1.468000000
H    -1.167000000    -4.742000000    -0.610000000
H    -0.294000000    -4.889000000    -1.838000000
O     4.314000000    -0.962000000     1.780000000
H     3.785000000    -1.760000000     1.795000000
H     3.932000000    -0.408000000     2.460000000
O     4.870000000    -4.135000000     1.735000000
H     4.971000000    -4.660000000     0.941000000
H     4.040000000    -3.675000000     1.614000000
O     7.141000000    -2.469000000     2.554000000
H     6.492000000    -2.821000000     1.945000000
H     7.454000000    -3.233000000     3.039000000
O    -4.068000000     2.896000000    -3.259000000
H    -4.058000000     2.720000000    -4.200000000
H    -3.987000000     3.847000000    -3.193000000
O    -0.546000000     0.013000000     5.084000000
H     0.124000000    -0.582000000     5.421000000
H    -1.184000000    -0.560000000     4.659000000
O    -5.830000000     4.007000000     0.963000000
H    -5.969000000     3.181000000     0.498000000
H    -4.936000000     4.262000000     0.735000000
O     5.046000000    -5.414000000    -0.558000000
H     4.855000000    -6.314000000    -0.296000000
H     4.603000000    -5.310000000    -1.399000000
O    -2.854000000     3.849000000     2.641000000
H    -2.060000000     3.848000000     3.175000000
H    -3.012000000     2.926000000     2.443000000
O    -3.689000000     0.799000000    -5.407000000
H    -3.251000000     0.398000000    -4.657000000
H    -2.980000000     1.188000000    -5.919000000
O     0.933000000    -3.638000000     3.849000000
H     1.531000000    -3.518000000     3.112000000
H     0.101000000    -3.276000000     3.544000000
O     0.349000000     3.337000000    -3.309000000
H     0.634000000     4.035000000    -3.899000000
H     0.365000000     3.736000000    -2.440000000
O    -1.319000000    -3.087000000     1.865000000
H    -1.133000000    -3.998000000     1.639000000
H    -1.540000000    -2.673000000     1.030000000
