144
-2789.15481
O    -3.795000000    -1.745000000     3.477000000
H    -4.031000000    -2.293000000     2.728000000
H    -3.224000000    -2.299000000     4.009000000
O     5.559000000    -1.848000000    -3.530000000
H     4.927000000    -1.427000000    -4.113000000
H     5.439000000    -1.407000000    -2.689000000
O     0.853000000    -5.666000000    -3.892000000
H     1.301000000    -4.844000000    -3.693000000
H     1.401000000    -6.341000000    -3.489000000
O    -7.688000000     0.129000000     0.670000000
H    -7.536000000    -0.189000000    -0.220000000
H    -6.963000000     0.732000000     0.836000000
O    -4.160000000    -2.906000000     0.482000000
H    -4.256000000    -3.849000000     0.618000000
H    -3.216000000    -2.752000000     0.534000000
O     4.530000000    -0.630000000    -0.989000000
H     4.709000000    -0.492000000    -0.059000000
H     4.052000000    -1.458000000    -1.020000000
O     2.965000000    -1.599000000     5.534000000
H     3.333000000    -2.084000000     6.272000000
H     2.635000000    -2.276000000     4.943000000
O     2.287000000     4.482000000     0.272000000
H     1.944000000     5.223000000     0.771000000
H     3.229000000     4.642000000     0.222000000
O     3.500000000    -0.737000000    -5.182000000
H     2.582000000    -0.657000000    -4.925000000
H     3.572000000    -1.620000000    -5.545000000
O     3.208000000    -6.167000000     4.471000000
H     3.976000000    -6.564000000     4.061000000
H     3.363000000    -5.224000000     4.406000000
O     4.312000000    -4.713000000    -0.286000000
H     4.306000000    -5.325000000    -1.023000000
H     3.615000000    -4.089000000    -0.487000000
O    -5.198000000     4.645000000     0.973000000
H    -4.969000000     4.003000000     1.645000000
H    -6.003000000     5.052000000     1.295000000
O    -1.485000000     4.300000000    -2.692000000
H    -0.691000000     4.288000000    -2.157000000
H    -1.165000000     4.322000000    -3.594000000
O    -0.211000000    -2.122000000    -4.119000000
H     0.020000000    -1.352000000    -4.639000000
H    -1.152000000    -2.036000000    -3.968000000
O    -3.409000000     6.596000000    -1.745000000
H    -3.719000000     5.692000000    -1.699000000
H    -2.677000000     6.567000000    -2.362000000
O     4.453000000    -3.710000000    -5.257000000
H     3.593000000    -3.889000000    -4.877000000
H     5.064000000    -3.812000000    -4.527000000
O    -4.711000000     0.407000000    -2.183000000
H    -5.443000000     0.694000000    -2.730000000
H    -4.004000000     1.019000000    -2.388000000
O     0.748000000     0.133000000    -5.151000000
H     0.777000000     1.086000000    -5.238000000
H     0.786000000    -0.191000000    -6.052000000
O    -2.955000000    -2.254000000    -3.987000000
H    -3.394000000    -2.907000000    -4.533000000
H    -3.166000000    -2.512000000    -3.090000000
O     4.198000000    -6.141000000    -2.462000000
H     3.385000000    -6.533000000    -2.782000000
H     4.869000000    -6.455000000    -3.068000000
O    -1.460000000    -2.596000000     0.259000000
H    -0.802000000    -1.905000000     0.343000000
H    -1.522000000    -2.754000000    -0.683000000
O    -1.597000000     4.731000000     1.954000000
H    -0.708000000     5.044000000     1.789000000
H    -1.477000000     3.903000000     2.419000000
O    -2.026000000    -3.164000000     4.894000000
H    -1.762000000    -2.821000000     5.748000000
H    -1.213000000    -3.484000000     4.503000000
O    -5.688000000     4.374000000    -1.896000000
H    -5.437000000     4.114000000    -1.010000000
H    -6.479000000     4.899000000    -1.777000000
O     6.697000000    -3.992000000    -1.288000000
H     5.825000000    -4.253000000    -0.990000000
H     6.641000000    -3.041000000    -1.386000000
O     1.377000000     3.562000000     4.769000000
H     1.276000000     4.485000000     4.537000000
H     2.260000000     3.337000000     4.477000000
O    -4.895000000     0.192000000     0.569000000
H    -4.893000000     0.331000000    -0.379000000
H    -4.387000000    -0.609000000     0.695000000
O     3.699000000    -6.881000000     1.070000000
H     4.499000000    -6.744000000     1.579000000
H     3.551000000    -6.045000000     0.628000000
O    -1.182000000     2.290000000     5.219000000
H    -0.484000000     2.943000000     5.268000000
H    -0.724000000     1.458000000     5.100000000
O     4.597000000     2.044000000    -2.120000000
H     4.639000000     1.107000000    -1.932000000
H     3.986000000     2.392000000    -1.471000000
O     2.299000000    -3.218000000    -3.655000000
H     2.555000000    -3.149000000    -2.735000000
H     1.422000000    -2.836000000    -3.689000000
O     2.676000000     1.899000000     1.498000000
H     2.091000000     1.286000000     1.054000000
H     2.457000000     2.753000000     1.126000000
O    -1.136000000     1.568000000    -7.245000000
H    -1.376000000     1.020000000    -6.497000000
H    -0.373000000     2.062000000    -6.944000000
O     0.589000000    -4.735000000    -0.819000000
H     1.399000000    -4.226000000    -0.792000000
H     0.493000000    -5.080000000     0.068000000
O     4.117000000     1.647000000     4.057000000
H     3.359000000     1.584000000     3.477000000
H     3.783000000     1.391000000     4.917000000
O    -2.916000000     7.003000000     0.884000000
H    -3.132000000     6.911000000    -0.044000000
H    -2.519000000     6.165000000     1.121000000
O    -1.781000000    -4.384000000    -1.909000000
H    -0.986000000    -4.570000000    -1.411000000
H    -1.549000000    -4.586000000    -2.816000000
O     5.850000000     0.259000000     2.336000000
H     5.583000000    -0.660000000     2.343000000
H     5.054000000     0.741000000     2.562000000
O     5.172000000    -2.341000000     2.157000000
H     5.739000000    -3.022000000     1.794000000
H     4.341000000    -2.450000000     1.694000000
O     5.810000000    -1.566000000     5.049000000
H     4.889000000    -1.466000000     4.807000000
H     6.034000000    -2.457000000     4.779000000
O    -2.963000000     2.016000000    -3.599000000
H    -2.477000000     2.765000000    -3.254000000
H    -3.510000000     2.384000000    -4.293000000
O     0.435000000     0.046000000     5.758000000
H     1.348000000    -0.224000000     5.856000000
H    -0.072000000    -0.720000000     6.024000000
O    -5.173000000     1.956000000     2.625000000
H    -5.126000000     1.354000000     1.882000000
H    -4.370000000     1.790000000     3.119000000
O    -3.372000000     0.780000000     4.111000000
H    -2.492000000     0.989000000     4.424000000
H    -3.311000000    -0.129000000     3.817000000
O    -2.624000000    -0.079000000    -5.338000000
H    -2.650000000    -0.906000000    -4.857000000
H    -2.626000000     0.594000000    -4.658000000
O     2.322000000    -3.594000000     3.668000000
H     2.618000000    -3.125000000     2.888000000
H     1.519000000    -4.036000000     3.390000000
O     1.194000000     3.846000000    -2.046000000
H     1.189000000     2.909000000    -2.241000000
H     1.662000000     3.915000000    -1.214000000
O    -0.432000000    -4.007000000     2.652000000
H    -0.418000000    -3.592000000     1.789000000
H    -1.354000000    -4.210000000     2.806000000
