144
-2836.66952
O     3.340000000    -0.730000000    -3.720000000
H     2.923000000    -0.875000000    -4.569000000
H     3.035000000    -1.456000000    -3.176000000
O    -3.319000000     2.422000000    -3.878000000
H    -3.223000000     2.531000000    -4.824000000
H    -3.913000000     3.126000000    -3.615000000
O     1.283000000     5.532000000    -4.849000000
H     1.325000000     4.993000000    -4.060000000
H     1.832000000     5.071000000    -5.484000000
O    -0.619000000    -5.419000000    -2.580000000
H    -0.045000000    -6.184000000    -2.553000000
H    -1.325000000    -5.626000000    -1.968000000
O    -0.186000000    -2.665000000    -3.184000000
H    -0.111000000    -3.554000000    -2.837000000
H     0.618000000    -2.229000000    -2.902000000
O     0.124000000    -0.843000000     3.869000000
H    -0.196000000     0.004000000     4.181000000
H     0.302000000    -0.704000000     2.939000000
O    -1.798000000     5.938000000     2.835000000
H    -1.735000000     6.628000000     3.496000000
H    -1.177000000     6.201000000     2.155000000
O    -2.916000000    -1.747000000     4.355000000
H    -3.287000000    -2.579000000     4.648000000
H    -2.497000000    -1.951000000     3.519000000
O     5.133000000    -5.249000000    -0.059000000
H     5.312000000    -4.399000000    -0.462000000
H     5.338000000    -5.123000000     0.868000000
O    -3.803000000     5.495000000     1.274000000
H    -3.032000000     5.687000000     1.809000000
H    -3.516000000     5.655000000     0.375000000
O    -0.531000000    -2.118000000    -5.697000000
H     0.394000000    -2.052000000    -5.935000000
H    -0.526000000    -2.256000000    -4.750000000
O     2.563000000    -7.121000000     2.250000000
H     2.653000000    -7.600000000     1.427000000
H     2.631000000    -6.199000000     2.000000000
O     5.170000000    -2.589000000    -1.859000000
H     4.290000000    -2.213000000    -1.893000000
H     5.143000000    -3.316000000    -2.481000000
O    -1.944000000    -4.453000000     2.682000000
H    -2.433000000    -4.190000000     1.903000000
H    -2.129000000    -5.387000000     2.777000000
O     1.362000000     6.669000000    -1.729000000
H     1.785000000     6.972000000    -0.925000000
H     1.468000000     5.717000000    -1.711000000
O     1.467000000     3.658000000    -2.870000000
H     2.123000000     3.089000000    -3.273000000
H     1.614000000     3.564000000    -1.929000000
O     1.823000000     5.204000000     2.439000000
H     1.514000000     5.730000000     3.177000000
H     2.345000000     5.811000000     1.914000000
O    -0.458000000    -3.410000000     4.676000000
H    -0.828000000    -3.644000000     3.825000000
H    -0.065000000    -2.548000000     4.538000000
O    -1.023000000    -7.296000000     1.808000000
H    -0.547000000    -6.539000000     2.151000000
H    -0.479000000    -7.615000000     1.088000000
O     2.562000000    -0.258000000     2.572000000
H     2.464000000     0.637000000     2.248000000
H     2.699000000    -0.785000000     1.784000000
O     5.508000000    -1.708000000    -5.215000000
H     4.986000000    -2.434000000    -5.557000000
H     4.869000000    -1.122000000    -4.810000000
O    -3.495000000    -4.048000000     0.360000000
H    -4.405000000    -4.213000000     0.113000000
H    -3.091000000    -3.699000000    -0.435000000
O    -6.389000000     3.809000000    -2.111000000
H    -6.773000000     3.057000000    -2.561000000
H    -6.073000000     3.456000000    -1.279000000
O     4.291000000    -1.329000000     0.416000000
H     4.546000000    -1.907000000     1.136000000
H     4.520000000    -1.816000000    -0.375000000
O     4.995000000    -2.810000000     2.756000000
H     5.237000000    -2.295000000     3.526000000
H     5.443000000    -3.647000000     2.878000000
O     2.305000000    -2.395000000    -5.628000000
H     2.041000000    -2.496000000    -6.543000000
H     2.672000000    -3.246000000    -5.390000000
O    -5.728000000     4.498000000     3.156000000
H    -5.430000000     4.729000000     4.035000000
H    -5.140000000     4.976000000     2.570000000
O    -1.225000000     3.971000000    -2.759000000
H    -0.333000000     3.656000000    -2.902000000
H    -1.779000000     3.332000000    -3.209000000
O    -2.901000000    -2.578000000    -1.951000000
H    -2.095000000    -2.753000000    -2.437000000
H    -2.984000000    -1.624000000    -1.959000000
O     5.797000000    -4.785000000    -3.370000000
H     5.650000000    -5.720000000    -3.226000000
H     6.682000000    -4.735000000    -3.730000000
O     7.877000000    -2.452000000    -2.219000000
H     6.952000000    -2.235000000    -2.338000000
H     7.946000000    -3.365000000    -2.498000000
O     3.641000000     1.993000000    -3.189000000
H     3.857000000     1.070000000    -3.320000000
H     4.284000000     2.301000000    -2.550000000
O    -3.255000000     0.427000000    -1.571000000
H    -2.377000000     0.493000000    -1.197000000
H    -3.285000000     1.117000000    -2.235000000
O    -0.519000000     1.742000000     4.445000000
H    -0.948000000     1.414000000     5.235000000
H    -0.964000000     2.568000000     4.256000000
O     1.547000000    -4.930000000    -4.994000000
H     1.972000000    -5.521000000    -4.372000000
H     0.810000000    -4.561000000    -4.507000000
O     2.720000000     4.182000000    -0.417000000
H     3.652000000     4.371000000    -0.526000000
H     2.674000000     3.658000000     0.383000000
O     2.630000000    -4.315000000     2.397000000
H     3.232000000    -3.640000000     2.709000000
H     2.293000000    -3.973000000     1.569000000
O    -5.211000000     0.047000000     0.162000000
H    -5.312000000     0.995000000     0.255000000
H    -4.478000000    -0.057000000    -0.444000000
O    -6.678000000    -1.088000000     2.294000000
H    -7.057000000    -0.589000000     3.018000000
H    -5.998000000    -0.517000000     1.939000000
O    -0.420000000     6.676000000     0.736000000
H    -0.911000000     6.714000000    -0.085000000
H    -0.010000000     5.811000000     0.730000000
O     2.134000000     2.301000000     1.681000000
H     1.800000000     3.074000000     2.136000000
H     1.428000000     2.049000000     1.086000000
O    -5.382000000     3.135000000     0.213000000
H    -5.477000000     2.999000000     1.156000000
H    -4.614000000     3.701000000     0.129000000
O     2.555000000    -5.857000000    -0.395000000
H     3.470000000    -5.753000000    -0.134000000
H     2.160000000    -5.002000000    -0.227000000
O    -1.896000000     3.975000000     4.432000000
H    -1.869000000     4.645000000     3.749000000
H    -2.164000000     4.447000000     5.221000000
O     2.505000000    -6.786000000    -2.885000000
H     2.929000000    -7.603000000    -2.624000000
H     2.397000000    -6.301000000    -2.067000000
O    -2.188000000     5.959000000    -1.136000000
H    -2.865000000     6.446000000    -1.607000000
H    -1.756000000     5.437000000    -1.811000000
O    -5.095000000     1.788000000     2.755000000
H    -4.671000000     1.328000000     3.480000000
H    -5.257000000     2.669000000     3.092000000
O    -3.928000000     0.768000000     4.929000000
H    -3.578000000    -0.025000000     4.521000000
H    -3.325000000     0.952000000     5.649000000
