144
-2803.01486
O     5.717000000    -3.685000000     0.789000000
H     5.052000000    -3.592000000     0.107000000
H     5.434000000    -3.088000000     1.482000000
O    -1.614000000    -5.138000000    -0.569000000
H    -1.387000000    -5.318000000    -1.481000000
H    -0.773000000    -5.119000000    -0.112000000
O     5.546000000    -1.389000000     2.091000000
H     5.784000000    -0.936000000     1.283000000
H     4.654000000    -1.096000000     2.276000000
O    -0.796000000     2.679000000     1.737000000
H    -0.653000000     2.182000000     2.543000000
H    -0.499000000     2.094000000     1.040000000
O     0.055000000     1.341000000     3.950000000
H     0.557000000     0.542000000     3.784000000
H     0.301000000     1.597000000     4.839000000
O     6.120000000     3.124000000    -0.407000000
H     6.499000000     3.972000000    -0.177000000
H     6.183000000     2.607000000     0.397000000
O     1.244000000    -4.533000000    -0.760000000
H     1.422000000    -3.871000000    -1.428000000
H     2.108000000    -4.779000000    -0.429000000
O     4.380000000    -0.426000000     4.834000000
H     3.938000000    -1.274000000     4.792000000
H     4.416000000    -0.130000000     3.925000000
O     2.732000000     3.495000000     2.905000000
H     2.777000000     2.642000000     2.473000000
H     2.258000000     4.051000000     2.287000000
O    -5.079000000     1.951000000    -3.233000000
H    -4.721000000     1.760000000    -2.366000000
H    -5.167000000     2.904000000    -3.251000000
O    -5.705000000     1.589000000    -0.144000000
H    -5.378000000     0.892000000     0.426000000
H    -5.223000000     2.369000000     0.130000000
O     1.445000000    -5.191000000     4.169000000
H     1.028000000    -5.494000000     3.362000000
H     0.960000000    -5.629000000     4.868000000
O    -4.720000000     0.067000000     2.297000000
H    -4.373000000    -0.825000000     2.279000000
H    -4.378000000     0.441000000     3.109000000
O    -4.068000000    -4.779000000    -1.540000000
H    -3.177000000    -4.915000000    -1.218000000
H    -3.957000000    -4.548000000    -2.462000000
O     4.431000000     6.021000000    -1.651000000
H     4.565000000     5.377000000    -0.956000000
H     4.226000000     6.834000000    -1.189000000
O     3.543000000    -3.243000000     4.113000000
H     2.978000000    -4.014000000     4.164000000
H     3.280000000    -2.807000000     3.302000000
O     4.424000000    -0.381000000    -2.689000000
H     4.152000000     0.531000000    -2.791000000
H     4.758000000    -0.629000000    -3.551000000
O    -3.786000000    -4.090000000    -4.287000000
H    -4.230000000    -3.275000000    -4.053000000
H    -4.027000000    -4.241000000    -5.201000000
O     5.464000000     5.129000000     2.081000000
H     5.384000000     5.631000000     2.891000000
H     4.936000000     4.345000000     2.231000000
O     5.899000000    -0.553000000    -0.533000000
H     5.393000000    -0.409000000    -1.333000000
H     6.779000000    -0.242000000    -0.746000000
O     0.586000000    -6.009000000     1.700000000
H     1.127000000    -5.599000000     1.025000000
H     0.694000000    -6.949000000     1.555000000
O     4.192000000     3.453000000    -4.414000000
H     4.668000000     2.703000000    -4.057000000
H     3.292000000     3.333000000    -4.110000000
O     0.364000000     6.140000000    -1.562000000
H    -0.545000000     6.419000000    -1.454000000
H     0.876000000     6.941000000    -1.447000000
O    -3.922000000     3.147000000     0.942000000
H    -3.010000000     3.063000000     1.221000000
H    -3.929000000     3.919000000     0.375000000
O     3.848000000     2.280000000    -1.591000000
H     4.733000000     2.569000000    -1.367000000
H     3.535000000     1.835000000    -0.804000000
O    -7.877000000    -2.781000000    -0.547000000
H    -7.401000000    -1.957000000    -0.645000000
H    -7.999000000    -3.095000000    -1.443000000
O     7.786000000    -1.760000000     3.834000000
H     7.094000000    -1.745000000     3.172000000
H     7.461000000    -1.194000000     4.534000000
O    -6.805000000    -0.545000000    -1.781000000
H    -6.585000000     0.152000000    -1.162000000
H    -7.276000000    -0.100000000    -2.485000000
O    -1.597000000     2.671000000    -4.894000000
H    -1.643000000     3.169000000    -4.077000000
H    -2.196000000     1.936000000    -4.760000000
O    -1.353000000    -2.310000000     4.012000000
H    -1.764000000    -2.004000000     4.821000000
H    -0.463000000    -1.961000000     4.049000000
O    -2.201000000    -5.054000000     4.250000000
H    -2.096000000    -4.108000000     4.346000000
H    -2.608000000    -5.334000000     5.070000000
O    -2.216000000    -1.983000000    -6.074000000
H    -2.387000000    -1.217000000    -5.526000000
H    -2.850000000    -2.636000000    -5.777000000
O     1.453000000     1.014000000    -3.587000000
H     1.870000000     1.876000000    -3.591000000
H     0.557000000     1.183000000    -3.297000000
O    -5.766000000    -4.126000000     0.879000000
H    -5.187000000    -4.323000000     0.143000000
H    -6.527000000    -3.704000000     0.480000000
O    -3.531000000     0.346000000    -4.753000000
H    -3.695000000     0.480000000    -5.686000000
H    -4.154000000     0.926000000    -4.314000000
O     3.117000000    -4.917000000     1.248000000
H     3.144000000    -3.965000000     1.150000000
H     4.036000000    -5.177000000     1.312000000
O     1.173000000     4.888000000     0.887000000
H     0.578000000     5.283000000     1.524000000
H     0.807000000     5.129000000     0.036000000
O     3.890000000     2.154000000     5.563000000
H     3.597000000     2.459000000     4.705000000
H     4.158000000     1.247000000     5.416000000
O     1.000000000    -1.219000000     4.345000000
H     1.422000000    -0.991000000     5.174000000
H     1.643000000    -0.986000000     3.676000000
O     1.156000000    -1.697000000    -2.551000000
H     1.483000000    -0.812000000    -2.715000000
H     0.523000000    -1.591000000    -1.841000000
O     5.652000000     1.714000000     2.856000000
H     6.498000000     1.392000000     2.546000000
H     5.012000000     1.120000000     2.463000000
O    -4.094000000     5.390000000    -0.344000000
H    -3.870000000     6.314000000    -0.231000000
H    -4.232000000     5.291000000    -1.286000000
O    -3.187000000    -2.486000000     1.918000000
H    -2.743000000    -2.159000000     2.700000000
H    -2.561000000    -3.092000000     1.522000000
O    -1.196000000     3.884000000    -2.494000000
H    -0.996000000     4.557000000    -3.144000000
H    -0.885000000     4.249000000    -1.666000000
O    -5.050000000    -1.765000000    -3.820000000
H    -4.507000000    -1.010000000    -4.044000000
H    -5.311000000    -1.611000000    -2.912000000
O     1.866000000     3.585000000    -2.891000000
H     1.728000000     4.529000000    -2.811000000
H     2.536000000     3.385000000    -2.238000000
O     5.687000000    -3.990000000     5.450000000
H     5.132000000    -3.686000000     4.731000000
H     5.978000000    -3.188000000     5.883000000
O     3.888000000    -2.802000000    -0.987000000
H     3.732000000    -2.787000000    -1.931000000
H     4.073000000    -1.891000000    -0.759000000
