144
-2825.90553
O     3.308000000    -3.992000000     2.001000000
H     2.392000000    -3.901000000     2.261000000
H     3.595000000    -3.098000000     1.817000000
O     6.087000000    -1.282000000     3.549000000
H     6.096000000    -2.122000000     4.007000000
H     5.383000000    -1.367000000     2.906000000
O     4.211000000    -1.303000000     1.683000000
H     4.868000000    -0.851000000     1.153000000
H     3.642000000    -0.605000000     2.007000000
O     3.515000000     4.056000000    -3.242000000
H     2.988000000     4.847000000    -3.132000000
H     2.875000000     3.361000000    -3.393000000
O    -0.543000000    -4.958000000    -1.243000000
H    -0.177000000    -4.964000000    -0.358000000
H    -0.661000000    -5.883000000    -1.459000000
O     2.519000000    -1.081000000     4.337000000
H     2.165000000    -1.848000000     3.886000000
H     2.587000000    -0.413000000     3.656000000
O     3.341000000     4.446000000     0.430000000
H     2.720000000     3.878000000     0.886000000
H     2.832000000     5.224000000     0.203000000
O     1.949000000     3.934000000     6.246000000
H     1.442000000     4.692000000     5.956000000
H     2.347000000     3.591000000     5.446000000
O     5.507000000     0.775000000     6.749000000
H     4.916000000     1.463000000     7.056000000
H     5.455000000     0.825000000     5.794000000
O     0.389000000     1.400000000     6.239000000
H     1.036000000     0.719000000     6.424000000
H     0.881000000     2.219000000     6.295000000
O    -3.676000000    -4.887000000     0.576000000
H    -3.996000000    -5.727000000     0.247000000
H    -4.284000000    -4.241000000     0.216000000
O     3.085000000     1.281000000    -1.395000000
H     2.555000000     0.944000000    -0.673000000
H     2.481000000     1.823000000    -1.902000000
O     0.917000000     5.829000000     4.646000000
H     1.004000000     6.030000000     3.714000000
H     0.020000000     6.082000000     4.863000000
O    -5.060000000     1.806000000    -3.360000000
H    -5.934000000     1.483000000    -3.580000000
H    -4.968000000     1.626000000    -2.424000000
O    -1.142000000    -4.375000000     1.425000000
H    -1.271000000    -5.314000000     1.563000000
H    -1.868000000    -4.114000000     0.859000000
O    -5.189000000     3.037000000    -0.152000000
H    -4.717000000     2.204000000    -0.142000000
H    -4.519000000     3.694000000     0.035000000
O     2.433000000    -1.862000000    -6.118000000
H     3.236000000    -2.147000000    -5.681000000
H     1.900000000    -1.484000000    -5.418000000
O     5.630000000     1.161000000     4.069000000
H     5.895000000     0.287000000     3.781000000
H     5.285000000     1.579000000     3.281000000
O    -2.162000000    -7.153000000    -1.973000000
H    -2.459000000    -6.274000000    -2.205000000
H    -1.638000000    -7.435000000    -2.723000000
O     0.417000000    -3.433000000     3.179000000
H    -0.003000000    -3.862000000     2.434000000
H    -0.127000000    -3.671000000     3.930000000
O    -4.206000000    -2.235000000    -3.297000000
H    -4.601000000    -1.905000000    -4.105000000
H    -3.264000000    -2.142000000    -3.436000000
O     6.052000000     0.065000000    -0.302000000
H     6.714000000     0.282000000    -0.959000000
H     5.294000000    -0.220000000    -0.812000000
O    -2.453000000    -4.863000000    -3.149000000
H    -3.310000000    -4.621000000    -2.797000000
H    -1.825000000    -4.478000000    -2.538000000
O    -3.808000000     0.606000000     0.505000000
H    -3.122000000     0.576000000     1.171000000
H    -4.183000000    -0.275000000     0.508000000
O    -5.418000000    -1.235000000     2.895000000
H    -4.678000000    -1.145000000     2.294000000
H    -5.015000000    -1.403000000     3.747000000
O    -1.966000000     0.817000000     3.730000000
H    -1.272000000     1.348000000     3.340000000
H    -1.976000000     1.075000000     4.652000000
O     5.371000000     3.423000000    -1.377000000
H     4.860000000     3.732000000    -2.124000000
H     4.879000000     3.717000000    -0.611000000
O     1.240000000     2.320000000    -3.558000000
H     0.742000000     1.814000000    -4.201000000
H     0.843000000     3.190000000    -3.578000000
O    -0.069000000     5.989000000     0.974000000
H    -0.400000000     5.783000000     0.100000000
H    -0.808000000     5.813000000     1.557000000
O    -2.414000000     3.602000000     0.479000000
H    -2.095000000     2.704000000     0.575000000
H    -2.213000000     4.018000000     1.317000000
O     0.674000000    -6.656000000     1.629000000
H    -0.169000000    -7.080000000     1.466000000
H     1.259000000    -7.023000000     0.966000000
O     1.282000000    -0.686000000    -3.929000000
H     1.352000000    -1.522000000    -3.469000000
H     1.991000000    -0.154000000    -3.567000000
O    -0.078000000     1.087000000    -5.707000000
H     0.184000000     0.264000000    -5.295000000
H    -1.022000000     1.140000000    -5.554000000
O     1.749000000    -3.449000000    -3.321000000
H     2.037000000    -3.530000000    -2.412000000
H     1.365000000    -4.301000000    -3.527000000
O    -2.765000000    -1.526000000     2.407000000
H    -2.261000000    -0.798000000     2.770000000
H    -2.140000000    -2.250000000     2.360000000
O     2.609000000    -4.332000000    -0.841000000
H     3.233000000    -4.002000000    -0.195000000
H     2.809000000    -5.266000000    -0.911000000
O     2.433000000    -0.764000000     7.067000000
H     2.661000000    -0.836000000     6.140000000
H     3.275000000    -0.774000000     7.522000000
O     1.689000000     7.354000000     2.194000000
H     1.011000000     6.838000000     1.757000000
H     2.102000000     7.853000000     1.489000000
O     5.441000000     2.306000000     1.678000000
H     4.581000000     2.632000000     1.416000000
H     5.621000000     1.587000000     1.072000000
O    -1.954000000     4.222000000    -4.022000000
H    -1.013000000     4.382000000    -4.092000000
H    -2.162000000     3.681000000    -4.784000000
O    -5.025000000    -4.384000000    -2.096000000
H    -5.041000000    -3.534000000    -2.537000000
H    -5.933000000    -4.685000000    -2.123000000
O     0.583000000     4.914000000    -3.805000000
H     0.184000000     5.640000000    -3.324000000
H     1.185000000     5.336000000    -4.419000000
O    -3.224000000     0.761000000    -5.307000000
H    -3.891000000     1.030000000    -4.674000000
H    -3.567000000    -0.048000000    -5.687000000
O    -1.090000000     4.948000000    -1.428000000
H    -1.530000000     4.779000000    -2.261000000
H    -1.511000000     4.351000000    -0.810000000
O    -4.420000000    -1.414000000    -5.970000000
H    -4.763000000    -2.228000000    -6.339000000
H    -4.781000000    -0.727000000    -6.530000000
O     3.750000000     4.132000000     3.743000000
H     3.222000000     3.689000000     3.078000000
H     4.652000000     3.893000000     3.530000000
O    -0.539000000     7.323000000    -2.517000000
H    -0.575000000     6.705000000    -1.787000000
H     0.240000000     7.851000000    -2.345000000
O    -0.635000000     2.951000000     2.710000000
H    -0.648000000     3.695000000     3.311000000
H     0.294000000     2.804000000     2.531000000
