144
-2827.08086
O     4.215000000    -3.700000000     2.503000000
H     4.041000000    -3.339000000     3.373000000
H     4.273000000    -2.933000000     1.933000000
O     6.908000000     0.252000000     2.829000000
H     7.701000000     0.031000000     3.318000000
H     6.465000000    -0.587000000     2.700000000
O     4.592000000    -1.482000000     1.172000000
H     4.374000000    -1.638000000     0.254000000
H     4.196000000    -0.633000000     1.372000000
O     0.720000000    -4.638000000    -1.369000000
H    -0.085000000    -4.796000000    -0.875000000
H     1.048000000    -5.513000000    -1.578000000
O     3.049000000     0.661000000     5.059000000
H     3.924000000     0.311000000     5.222000000
H     3.000000000     0.752000000     4.107000000
O     2.777000000     3.807000000     0.028000000
H     2.607000000     3.305000000     0.825000000
H     2.253000000     4.602000000     0.130000000
O     6.391000000     2.350000000     6.080000000
H     5.736000000     2.982000000     6.375000000
H     6.040000000     2.006000000     5.258000000
O    -5.837000000    -4.552000000     0.466000000
H    -5.117000000    -4.621000000    -0.161000000
H    -6.524000000    -5.111000000     0.104000000
O     1.501000000     2.575000000     5.819000000
H     2.035000000     1.826000000     5.553000000
H     1.351000000     3.062000000     5.009000000
O    -3.664000000    -4.320000000    -1.475000000
H    -3.056000000    -5.008000000    -1.747000000
H    -3.497000000    -3.599000000    -2.082000000
O     4.623000000    -1.180000000    -2.598000000
H     3.948000000    -0.502000000    -2.603000000
H     4.309000000    -1.826000000    -1.965000000
O     2.440000000     6.773000000     2.903000000
H     3.347000000     6.849000000     2.609000000
H     2.314000000     7.523000000     3.486000000
O     5.765000000    -0.562000000     5.654000000
H     6.312000000    -1.228000000     6.068000000
H     6.009000000     0.254000000     6.090000000
O    -3.450000000     1.434000000    -4.850000000
H    -3.718000000     0.515000000    -4.847000000
H    -4.222000000     1.910000000    -4.546000000
O    -3.286000000    -3.043000000     1.951000000
H    -3.546000000    -3.158000000     2.865000000
H    -3.256000000    -3.932000000     1.596000000
O    -5.166000000     2.654000000    -3.063000000
H    -5.836000000     1.985000000    -2.923000000
H    -4.603000000     2.594000000    -2.291000000
O     5.070000000     2.355000000     2.924000000
H     5.803000000     1.862000000     2.556000000
H     4.352000000     1.723000000     2.961000000
O    -1.921000000    -5.763000000    -3.752000000
H    -2.697000000    -5.256000000    -3.993000000
H    -1.388000000    -5.777000000    -4.547000000
O    -5.980000000    -1.809000000     1.342000000
H    -5.139000000    -1.928000000     1.784000000
H    -6.271000000    -2.697000000     1.136000000
O    -1.901000000    -0.821000000     2.022000000
H    -2.402000000    -1.569000000     1.697000000
H    -1.213000000    -0.692000000     1.370000000
O     5.786000000     4.385000000    -0.343000000
H     4.867000000     4.120000000    -0.357000000
H     5.996000000     4.475000000     0.586000000
O    -1.350000000    -2.762000000    -4.968000000
H    -0.518000000    -3.211000000    -4.820000000
H    -1.539000000    -2.907000000    -5.895000000
O     0.817000000    -4.258000000    -4.283000000
H     1.528000000    -3.621000000    -4.210000000
H     0.531000000    -4.401000000    -3.381000000
O    -5.507000000     3.282000000     1.697000000
H    -5.784000000     3.398000000     2.606000000
H    -4.709000000     2.758000000     1.755000000
O    -4.470000000     5.286000000    -0.473000000
H    -4.759000000     4.468000000    -0.068000000
H    -4.434000000     5.912000000     0.251000000
O    -1.299000000     4.888000000     5.215000000
H    -0.462000000     4.826000000     4.755000000
H    -1.116000000     5.445000000     5.972000000
O     2.890000000     3.256000000    -2.681000000
H     2.289000000     2.511000000    -2.680000000
H     3.120000000     3.380000000    -1.760000000
O    -1.631000000    -1.979000000     4.630000000
H    -1.656000000    -1.755000000     3.700000000
H    -1.386000000    -2.904000000     4.647000000
O    -5.446000000    -0.667000000    -5.084000000
H    -5.482000000    -1.208000000    -5.873000000
H    -5.870000000     0.154000000    -5.338000000
O     1.970000000     0.589000000    -2.588000000
H     1.609000000     0.243000000    -1.772000000
H     1.208000000     0.708000000    -3.156000000
O     0.314000000    -5.769000000     2.221000000
H    -0.456000000    -6.268000000     1.948000000
H     0.875000000    -5.751000000     1.445000000
O     1.300000000    -2.626000000     5.934000000
H     0.769000000    -2.684000000     5.141000000
H     0.769000000    -3.047000000     6.610000000
O    -3.890000000     2.483000000    -0.713000000
H    -4.688000000     2.241000000    -0.243000000
H    -3.324000000     2.866000000    -0.043000000
O     2.823000000    -2.083000000    -4.777000000
H     2.589000000    -1.168000000    -4.930000000
H     3.747000000    -2.056000000    -4.526000000
O    -0.531000000     1.266000000    -4.100000000
H    -0.910000000     1.617000000    -3.294000000
H    -1.239000000     1.319000000    -4.741000000
O     3.398000000    -3.381000000    -0.746000000
H     3.858000000    -4.200000000    -0.932000000
H     2.470000000    -3.608000000    -0.801000000
O    -3.525000000     1.542000000     2.880000000
H    -2.961000000     1.707000000     3.635000000
H    -3.131000000     0.784000000     2.448000000
O     2.700000000    -5.925000000     0.786000000
H     3.195000000    -5.134000000     1.002000000
H     2.901000000    -6.088000000    -0.135000000
O    -7.311000000    -1.311000000    -1.107000000
H    -6.501000000    -1.381000000    -0.603000000
H    -8.007000000    -1.399000000    -0.456000000
O    -4.046000000    -2.619000000    -4.012000000
H    -3.228000000    -2.565000000    -4.506000000
H    -4.573000000    -1.891000000    -4.342000000
O    -7.226000000     0.911000000    -2.549000000
H    -7.764000000     0.850000000    -3.338000000
H    -7.315000000     0.054000000    -2.132000000
O    -2.567000000     4.038000000     1.666000000
H    -1.875000000     4.060000000     2.327000000
H    -2.884000000     4.940000000     1.620000000
O    -1.469000000     2.018000000     5.615000000
H    -0.542000000     1.973000000     5.848000000
H    -1.632000000     2.948000000     5.457000000
O     1.656000000     0.124000000    -5.987000000
H     1.874000000     0.923000000    -5.507000000
H     0.711000000     0.180000000    -6.128000000
O    -2.468000000     5.437000000    -2.231000000
H    -2.765000000     4.853000000    -2.929000000
H    -3.177000000     5.421000000    -1.588000000
O     3.683000000    -2.796000000     4.950000000
H     2.868000000    -2.753000000     5.450000000
H     4.081000000    -1.933000000     5.065000000
O     3.875000000     4.495000000     4.256000000
H     3.338000000     4.989000000     3.637000000
H     3.958000000     3.627000000     3.863000000
O     0.773000000     4.618000000     3.481000000
H     1.306000000     5.358000000     3.190000000
H     1.060000000     3.887000000     2.933000000
