144
-2839.71130
O     3.502000000    -3.761000000    -1.622000000
H     3.121000000    -4.572000000    -1.287000000
H     3.587000000    -3.200000000    -0.852000000
O    -1.518000000     2.595000000     5.975000000
H    -1.363000000     3.173000000     5.228000000
H    -1.885000000     1.799000000     5.589000000
O     2.196000000     6.151000000    -1.935000000
H     1.963000000     5.652000000    -1.152000000
H     2.227000000     7.060000000    -1.639000000
O    -3.431000000     2.353000000    -0.764000000
H    -3.837000000     2.359000000     0.103000000
H    -4.096000000     2.726000000    -1.343000000
O    -1.461000000     4.111000000    -0.224000000
H    -1.662000000     4.785000000    -0.873000000
H    -2.087000000     3.410000000    -0.404000000
O    -8.133000000    -1.049000000     0.006000000
H    -8.772000000    -1.105000000    -0.704000000
H    -7.596000000    -1.835000000    -0.092000000
O    -1.360000000     2.813000000    -3.559000000
H    -1.521000000     3.754000000    -3.476000000
H    -0.722000000     2.618000000    -2.873000000
O    -3.096000000     0.292000000    -3.128000000
H    -2.847000000     0.463000000    -2.220000000
H    -2.759000000     1.044000000    -3.614000000
O     7.202000000     0.714000000     1.458000000
H     7.363000000     0.722000000     2.401000000
H     7.575000000     1.538000000     1.144000000
O     0.566000000    -3.758000000     1.918000000
H     0.639000000    -4.350000000     2.667000000
H     1.378000000    -3.252000000     1.933000000
O     7.596000000    -1.262000000    -0.496000000
H     6.939000000    -1.497000000    -1.151000000
H     7.213000000    -0.520000000    -0.027000000
O     1.509000000    -0.653000000    -4.747000000
H     1.340000000    -0.886000000    -5.660000000
H     1.827000000    -1.462000000    -4.348000000
O    -3.086000000    -5.686000000    -1.611000000
H    -2.272000000    -5.488000000    -1.148000000
H    -3.387000000    -6.508000000    -1.225000000
O     3.568000000    -0.998000000     4.019000000
H     3.449000000    -0.051000000     4.083000000
H     3.979000000    -1.130000000     3.164000000
O     3.708000000     0.898000000    -5.275000000
H     2.889000000     0.408000000    -5.199000000
H     3.516000000     1.748000000    -4.881000000
O    -0.512000000    -0.890000000     3.103000000
H    -0.392000000    -0.675000000     2.178000000
H    -0.758000000    -1.815000000     3.104000000
O     0.427000000    -4.997000000    -2.997000000
H     1.037000000    -5.720000000    -3.140000000
H     0.166000000    -5.081000000    -2.080000000
O    -1.996000000     4.422000000     3.488000000
H    -1.993000000     5.324000000     3.168000000
H    -2.907000000     4.258000000     3.733000000
O     4.560000000     1.176000000    -2.352000000
H     4.998000000     0.332000000    -2.459000000
H     4.120000000     1.111000000    -1.504000000
O     2.332000000    -3.201000000    -4.037000000
H     1.526000000    -3.678000000    -3.839000000
H     2.861000000    -3.285000000    -3.244000000
O    -5.135000000     0.905000000     4.242000000
H    -5.260000000     0.749000000     5.178000000
H    -4.204000000     1.111000000     4.156000000
O     5.511000000    -1.641000000    -2.506000000
H     4.815000000    -2.279000000    -2.668000000
H     6.207000000    -1.888000000    -3.115000000
O    -0.829000000    -2.926000000    -5.704000000
H    -1.621000000    -3.375000000    -5.409000000
H    -0.331000000    -2.767000000    -4.902000000
O     3.706000000    -2.549000000     0.753000000
H     3.969000000    -1.628000000     0.749000000
H     4.289000000    -2.962000000     1.390000000
O    -4.641000000    -1.884000000    -3.560000000
H    -4.278000000    -1.230000000    -2.962000000
H    -4.240000000    -1.684000000    -4.405000000
O    -7.030000000    -2.714000000    -2.936000000
H    -7.547000000    -2.479000000    -3.706000000
H    -6.183000000    -2.293000000    -3.078000000
O     5.102000000     3.215000000    -4.230000000
H     4.986000000     2.592000000    -3.512000000
H     5.714000000     2.783000000    -4.826000000
O    -4.373000000    -4.811000000     1.643000000
H    -4.758000000    -4.356000000     0.894000000
H    -4.907000000    -4.537000000     2.389000000
O     1.384000000     0.580000000     4.884000000
H     1.013000000     0.150000000     5.654000000
H     0.940000000     0.168000000     4.143000000
O     2.249000000     3.013000000     4.027000000
H     1.652000000     2.269000000     4.109000000
H     2.282000000     3.191000000     3.087000000
O     7.275000000     3.489000000     1.410000000
H     6.534000000     3.566000000     2.011000000
H     6.972000000     3.905000000     0.602000000
O    -5.436000000     1.956000000     1.344000000
H    -6.108000000     1.279000000     1.263000000
H    -5.200000000     1.948000000     2.272000000
O     4.377000000    -0.111000000     1.397000000
H     5.200000000     0.295000000     1.666000000
H     3.896000000     0.590000000     0.957000000
O     1.286000000     1.816000000    -3.448000000
H     1.840000000     1.504000000    -2.733000000
H     0.872000000     1.025000000    -3.793000000
O     4.910000000     3.332000000     2.891000000
H     4.333000000     3.171000000     2.145000000
H     4.425000000     2.998000000     3.646000000
O    -2.472000000     0.266000000     4.686000000
H    -2.600000000    -0.475000000     5.278000000
H    -1.974000000    -0.095000000     3.954000000
O    -2.619000000    -4.585000000    -4.608000000
H    -2.442000000    -5.495000000    -4.847000000
H    -2.621000000    -4.584000000    -3.651000000
O     4.484000000     4.486000000    -0.183000000
H     5.228000000     4.462000000    -0.784000000
H     4.049000000     3.642000000    -0.305000000
O    -2.152000000    -3.304000000     2.834000000
H    -2.058000000    -3.513000000     1.904000000
H    -2.333000000    -4.146000000     3.252000000
O    -0.432000000    -5.255000000    -0.218000000
H    -0.385000000    -6.126000000     0.175000000
H    -0.229000000    -4.656000000     0.501000000
O     1.162000000     5.081000000     0.428000000
H     0.270000000     4.953000000     0.106000000
H     1.337000000     4.305000000     0.960000000
O    -4.800000000    -2.114000000     3.142000000
H    -4.787000000    -2.146000000     2.185000000
H    -3.944000000    -2.455000000     3.404000000
O    -5.587000000     4.056000000    -0.386000000
H    -5.652000000     3.268000000     0.154000000
H    -6.287000000     4.624000000    -0.065000000
O    -6.302000000    -2.985000000     0.020000000
H    -6.953000000    -3.687000000     0.026000000
H    -6.082000000    -2.871000000    -0.905000000
O     1.742000000     4.211000000    -4.481000000
H     1.973000000     4.684000000    -3.682000000
H     1.439000000     3.357000000    -4.175000000
O     0.048000000     7.837000000     1.014000000
H     0.479000000     6.988000000     0.915000000
H     0.765000000     8.471000000     1.015000000
O     2.222000000     5.796000000     3.874000000
H     2.334000000     4.847000000     3.935000000
H     1.310000000     5.946000000     4.120000000
O     3.888000000     6.099000000     1.861000000
H     3.176000000     5.980000000     2.489000000
H     3.883000000     5.296000000     1.339000000
