144
-2811.19697
O    -0.639000000     1.696000000     4.861000000
H    -0.062000000     2.374000000     5.213000000
H    -0.828000000     1.982000000     3.967000000
O    -3.394000000     3.693000000     3.222000000
H    -3.373000000     2.900000000     3.758000000
H    -2.732000000     3.543000000     2.547000000
O     0.485000000    -3.068000000    -5.146000000
H     0.391000000    -3.946000000    -5.518000000
H     1.099000000    -3.181000000    -4.420000000
O     4.640000000     1.750000000    -0.658000000
H     4.870000000     1.319000000    -1.481000000
H     4.027000000     2.440000000    -0.912000000
O    -0.675000000    -3.438000000     4.760000000
H     0.093000000    -3.065000000     4.327000000
H    -0.344000000    -4.219000000     5.204000000
O    -3.392000000     0.982000000     4.501000000
H    -2.479000000     1.144000000     4.737000000
H    -3.895000000     1.320000000     5.242000000
O    -5.875000000     4.650000000     4.305000000
H    -6.457000000     4.777000000     3.556000000
H    -5.054000000     4.342000000     3.920000000
O    -2.840000000    -0.740000000    -7.008000000
H    -2.977000000    -1.496000000    -6.435000000
H    -2.076000000    -0.296000000    -6.639000000
O    -0.538000000    -7.245000000     2.610000000
H    -0.004000000    -6.465000000     2.457000000
H     0.059000000    -7.866000000     3.025000000
O    -2.358000000     7.578000000     3.400000000
H    -3.104000000     6.984000000     3.323000000
H    -2.299000000     8.001000000     2.543000000
O     1.613000000    -4.818000000    -3.340000000
H     1.477000000    -5.287000000    -4.163000000
H     0.882000000    -5.093000000    -2.785000000
O    -0.997000000    -0.978000000    -4.719000000
H    -0.520000000    -1.786000000    -4.906000000
H    -1.489000000    -1.170000000    -3.921000000
O    -4.365000000     0.183000000     1.626000000
H    -3.953000000    -0.016000000     0.785000000
H    -3.653000000     0.121000000     2.262000000
O     4.047000000    -5.410000000    -2.559000000
H     3.268000000    -5.066000000    -2.996000000
H     4.724000000    -4.753000000    -2.725000000
O     2.736000000    -1.144000000     2.063000000
H     3.590000000    -0.966000000     1.670000000
H     2.105000000    -0.894000000     1.388000000
O     2.595000000    -3.819000000     3.022000000
H     3.379000000    -4.091000000     3.498000000
H     2.678000000    -2.868000000     2.947000000
O    -2.921000000    -2.308000000    -3.059000000
H    -2.924000000    -1.850000000    -2.218000000
H    -2.963000000    -3.236000000    -2.826000000
O    -3.939000000    -2.826000000    -5.385000000
H    -4.829000000    -2.475000000    -5.368000000
H    -3.560000000    -2.559000000    -4.548000000
O     3.217000000     4.516000000    -2.307000000
H     3.302000000     5.160000000    -3.010000000
H     3.261000000     3.669000000    -2.751000000
O    -3.019000000    -0.121000000    -0.688000000
H    -3.740000000     0.050000000    -1.293000000
H    -2.337000000     0.500000000    -0.947000000
O    -1.725000000     5.533000000    -3.407000000
H    -0.926000000     5.255000000    -3.856000000
H    -1.970000000     4.782000000    -2.868000000
O    -3.792000000    -6.070000000    -0.131000000
H    -3.969000000    -6.989000000    -0.333000000
H    -3.720000000    -6.044000000     0.824000000
O     4.696000000    -2.981000000     0.845000000
H     4.802000000    -2.073000000     0.560000000
H     4.066000000    -3.353000000     0.228000000
O    -2.742000000     1.751000000    -3.516000000
H    -2.740000000     2.562000000    -3.008000000
H    -1.848000000     1.418000000    -3.438000000
O     2.166000000     7.602000000     0.243000000
H     2.207000000     6.650000000     0.328000000
H     3.080000000     7.884000000     0.267000000
O    -2.294000000    -5.083000000    -6.786000000
H    -2.230000000    -5.922000000    -6.329000000
H    -2.724000000    -4.501000000    -6.158000000
O    -0.721000000     5.828000000    -0.478000000
H    -0.429000000     5.104000000     0.077000000
H    -0.093000000     5.844000000    -1.200000000
O     1.381000000    -5.752000000     1.494000000
H     2.113000000    -6.358000000     1.376000000
H     1.760000000    -5.006000000     1.960000000
O    -4.108000000    -3.076000000     0.310000000
H    -3.540000000    -3.780000000     0.620000000
H    -3.669000000    -2.272000000     0.589000000
O    -0.703000000    -1.481000000     6.761000000
H    -0.575000000    -2.241000000     6.192000000
H    -0.012000000    -0.870000000     6.503000000
O    -2.240000000    -5.032000000    -2.210000000
H    -1.314000000    -5.082000000    -1.976000000
H    -2.704000000    -5.178000000    -1.386000000
O     1.571000000    -0.617000000     4.948000000
H     1.822000000    -0.972000000     4.095000000
H     1.228000000     0.255000000     4.752000000
O    -2.720000000     3.871000000    -1.562000000
H    -2.196000000     4.265000000    -0.864000000
H    -3.569000000     3.696000000    -1.155000000
O     3.832000000    -0.476000000    -4.722000000
H     3.315000000    -0.565000000    -5.522000000
H     4.428000000    -1.225000000    -4.738000000
O     0.952000000     6.333000000    -2.618000000
H     1.820000000     5.946000000    -2.503000000
H     1.123000000     7.192000000    -3.005000000
O     4.980000000     3.176000000     3.139000000
H     4.059000000     3.391000000     2.987000000
H     5.204000000     3.641000000     3.946000000
O     5.652000000     0.846000000    -2.966000000
H     6.429000000     0.354000000    -2.699000000
H     5.184000000     0.255000000    -3.554000000
O     2.500000000     4.008000000     2.384000000
H     1.582000000     3.743000000     2.323000000
H     2.624000000     4.611000000     1.651000000
O    -3.335000000    -4.694000000     2.472000000
H    -4.152000000    -4.279000000     2.748000000
H    -2.844000000    -4.819000000     3.284000000
O     0.289000000    -6.027000000    -1.297000000
H     0.572000000    -6.911000000    -1.530000000
H     0.584000000    -5.911000000    -0.394000000
O     2.884000000     1.961000000    -3.504000000
H     3.146000000     1.052000000    -3.654000000
H     1.931000000     1.955000000    -3.601000000
O    -2.259000000     8.003000000     0.590000000
H    -1.545000000     8.589000000     0.341000000
H    -2.006000000     7.151000000     0.234000000
O     0.085000000     1.941000000    -3.988000000
H     0.054000000     1.079000000    -4.404000000
H    -0.148000000     2.553000000    -4.687000000
O     3.506000000     5.204000000     0.240000000
H     3.358000000     5.038000000    -0.691000000
H     4.362000000     4.815000000     0.420000000
O    -0.556000000     5.002000000     4.222000000
H    -1.168000000     5.686000000     3.951000000
H    -0.650000000     4.319000000     3.559000000
O     2.014000000     5.800000000     4.558000000
H     1.120000000     5.552000000     4.322000000
H     2.560000000     5.395000000     3.884000000
O    -0.100000000     5.243000000     6.774000000
H    -0.129000000     5.153000000     5.821000000
H     0.030000000     6.179000000     6.922000000
O    -3.235000000    -7.582000000    -3.043000000
H    -3.136000000    -7.668000000    -3.992000000
H    -2.572000000    -6.939000000    -2.791000000
