144
-2789.61749
O    -6.090000000    -0.048000000     2.784000000
H    -5.301000000     0.491000000     2.720000000
H    -6.773000000     0.559000000     3.068000000
O     3.968000000     0.351000000    -3.037000000
H     4.002000000     0.329000000    -2.081000000
H     4.533000000    -0.370000000    -3.314000000
O     0.796000000     6.679000000     5.326000000
H     0.137000000     7.353000000     5.490000000
H     0.437000000     6.163000000     4.604000000
O     5.914000000    -1.419000000    -3.471000000
H     6.591000000    -0.789000000    -3.722000000
H     5.925000000    -1.413000000    -2.514000000
O    -2.021000000     2.560000000     7.821000000
H    -1.521000000     3.132000000     7.239000000
H    -2.789000000     2.307000000     7.309000000
O    -5.283000000    -0.076000000    -4.534000000
H    -5.812000000    -0.416000000    -3.813000000
H    -4.443000000     0.143000000    -4.132000000
O    -7.105000000    -3.023000000    -1.953000000
H    -7.243000000    -2.302000000    -2.567000000
H    -6.345000000    -2.755000000    -1.436000000
O    -0.764000000    -4.199000000    -4.550000000
H    -0.063000000    -4.828000000    -4.381000000
H    -0.318000000    -3.436000000    -4.918000000
O    -4.127000000     2.765000000    -0.143000000
H    -4.605000000     3.112000000     0.610000000
H    -4.672000000     2.991000000    -0.897000000
O    -3.263000000     1.145000000    -2.694000000
H    -2.422000000     1.512000000    -2.966000000
H    -3.414000000     1.511000000    -1.823000000
O     0.003000000     6.087000000    -0.697000000
H     0.109000000     5.701000000     0.173000000
H    -0.771000000     5.654000000    -1.058000000
O    -2.681000000     5.433000000     3.991000000
H    -3.423000000     4.919000000     3.671000000
H    -3.001000000     6.335000000     4.000000000
O     4.720000000     0.175000000     2.242000000
H     5.454000000    -0.193000000     2.735000000
H     4.205000000     0.647000000     2.896000000
O     1.909000000    -5.588000000     0.551000000
H     2.515000000    -4.881000000     0.770000000
H     1.384000000    -5.238000000    -0.169000000
O    -4.332000000    -3.525000000    -0.509000000
H    -4.624000000    -3.372000000     0.390000000
H    -4.281000000    -4.478000000    -0.584000000
O    -3.872000000     1.865000000     3.551000000
H    -3.035000000     1.631000000     3.150000000
H    -4.188000000     2.605000000     3.032000000
O    -4.064000000     1.721000000     6.223000000
H    -3.890000000     1.901000000     5.300000000
H    -4.498000000     0.868000000     6.223000000
O     4.812000000     4.990000000    -0.003000000
H     3.935000000     4.739000000     0.287000000
H     5.162000000     4.201000000    -0.417000000
O    -2.810000000    -2.807000000     4.816000000
H    -2.058000000    -2.216000000     4.832000000
H    -2.683000000    -3.378000000     5.573000000
O     3.845000000     0.793000000     5.176000000
H     3.385000000     0.794000000     6.016000000
H     3.632000000     1.640000000     4.786000000
O    -3.438000000    -1.908000000    -2.863000000
H    -3.830000000    -2.402000000    -2.143000000
H    -3.056000000    -1.137000000    -2.443000000
O     3.320000000    -3.247000000     0.302000000
H     4.111000000    -3.153000000     0.833000000
H     3.533000000    -2.811000000    -0.523000000
O    -0.186000000    -1.230000000     7.334000000
H    -0.272000000    -0.476000000     7.918000000
H    -0.378000000    -0.881000000     6.464000000
O     0.223000000    -1.465000000    -5.538000000
H     0.288000000    -1.166000000    -6.445000000
H     1.115000000    -1.393000000    -5.198000000
O    -2.528000000    -1.836000000    -5.691000000
H    -2.951000000    -1.840000000    -4.832000000
H    -1.603000000    -1.677000000    -5.502000000
O     1.495000000     3.234000000     6.689000000
H     0.695000000     3.130000000     6.174000000
H     1.536000000     4.171000000     6.880000000
O    -0.734000000     2.129000000    -2.234000000
H    -0.570000000     1.779000000    -1.359000000
H     0.125000000     2.415000000    -2.543000000
O    -0.458000000    -7.011000000    -3.732000000
H    -1.389000000    -7.031000000    -3.954000000
H    -0.440000000    -7.036000000    -2.775000000
O     1.564000000    -1.251000000     3.062000000
H     2.360000000    -0.744000000     2.902000000
H     1.392000000    -1.695000000     2.231000000
O     4.770000000    -4.304000000    -2.143000000
H     5.406000000    -3.667000000    -1.817000000
H     4.673000000    -4.934000000    -1.429000000
O    -2.916000000     1.203000000    -6.338000000
H    -2.050000000     0.839000000    -6.524000000
H    -3.521000000     0.482000000    -6.512000000
O     2.332000000    -4.678000000    -3.576000000
H     1.607000000    -4.785000000    -2.960000000
H     3.112000000    -4.636000000    -3.022000000
O    -0.722000000    -0.565000000     4.757000000
H    -1.115000000     0.227000000     4.391000000
H    -0.158000000    -0.897000000     4.059000000
O     6.078000000     2.582000000    -0.758000000
H     6.794000000     2.194000000    -0.254000000
H     6.335000000     2.462000000    -1.672000000
O    -4.457000000    -3.849000000    -4.754000000
H    -3.647000000    -3.706000000    -5.243000000
H    -4.439000000    -3.187000000    -4.063000000
O     3.127000000    -4.024000000    -7.019000000
H     2.834000000    -3.294000000    -6.472000000
H     3.991000000    -3.757000000    -7.332000000
O    -6.924000000    -0.254000000    -0.174000000
H    -6.230000000    -0.067000000     0.457000000
H    -7.735000000    -0.160000000     0.326000000
O    -4.625000000    -0.888000000     5.157000000
H    -4.961000000    -0.417000000     4.394000000
H    -4.044000000    -1.554000000     4.790000000
O     2.935000000    -1.748000000    -5.154000000
H     3.071000000    -2.416000000    -4.482000000
H     3.785000000    -1.316000000    -5.238000000
O     4.566000000     0.291000000    -0.380000000
H     4.725000000     1.233000000    -0.312000000
H     4.693000000    -0.039000000     0.509000000
O    -5.294000000    -3.620000000     2.069000000
H    -6.126000000    -3.153000000     1.993000000
H    -5.067000000    -3.555000000     2.997000000
O     2.255000000     4.410000000     0.799000000
H     2.171000000     5.274000000     1.203000000
H     1.874000000     3.809000000     1.439000000
O     2.895000000     3.114000000     4.210000000
H     2.515000000     3.653000000     4.904000000
H     2.210000000     3.064000000     3.543000000
O     2.627000000     2.339000000    -4.298000000
H     3.035000000     1.593000000    -3.859000000
H     2.372000000     2.926000000    -3.586000000
O     0.565000000    -4.947000000    -1.673000000
H    -0.127000000    -4.358000000    -1.975000000
H     0.114000000    -5.771000000    -1.489000000
O    -0.325000000     5.104000000     2.503000000
H    -0.108000000     4.172000000     2.459000000
H    -1.116000000     5.139000000     3.041000000
O    -1.099000000     3.408000000     5.309000000
H    -0.947000000     2.810000000     4.577000000
H    -1.635000000     4.110000000     4.938000000
O     1.507000000     3.932000000    -2.138000000
H     0.974000000     4.713000000    -1.990000000
H     2.031000000     3.845000000    -1.342000000
