144
-2818.62610
O     6.127000000     1.684000000    -2.093000000
H     5.709000000     1.012000000    -1.554000000
H     6.816000000     2.045000000    -1.535000000
O     6.603000000    -0.823000000    -4.563000000
H     6.955000000     0.064000000    -4.484000000
H     5.795000000    -0.807000000    -4.050000000
O     1.802000000    -0.215000000     7.055000000
H     1.084000000    -0.434000000     6.461000000
H     1.452000000     0.486000000     7.605000000
O     2.578000000     3.395000000    -2.087000000
H     3.312000000     4.007000000    -2.044000000
H     1.963000000     3.801000000    -2.698000000
O    -3.678000000    -1.608000000    -3.277000000
H    -3.407000000    -0.781000000    -3.676000000
H    -2.860000000    -2.018000000    -2.997000000
O    -1.953000000    -3.882000000    -2.487000000
H    -1.235000000    -4.339000000    -2.049000000
H    -2.365000000    -4.552000000    -3.033000000
O    -0.925000000     5.071000000     3.563000000
H    -0.050000000     5.447000000     3.467000000
H    -0.787000000     4.125000000     3.502000000
O     2.827000000    -1.807000000     0.927000000
H     3.269000000    -1.568000000     1.743000000
H     1.973000000    -1.379000000     0.984000000
O    -3.135000000    -4.088000000     2.346000000
H    -2.594000000    -4.806000000     2.017000000
H    -3.354000000    -3.576000000     1.568000000
O    -5.121000000     1.713000000     0.995000000
H    -5.733000000     2.436000000     0.858000000
H    -4.643000000     1.951000000     1.790000000
O    -2.500000000    -1.993000000     6.805000000
H    -2.170000000    -2.849000000     6.533000000
H    -3.448000000    -2.052000000     6.685000000
O    -0.195000000     2.889000000     5.614000000
H    -0.312000000     2.717000000     4.680000000
H    -1.080000000     3.044000000     5.943000000
O     2.168000000     4.727000000     5.610000000
H     2.709000000     4.445000000     4.872000000
H     1.322000000     4.303000000     5.463000000
O    -1.319000000    -6.065000000     1.298000000
H    -0.886000000    -5.531000000     0.632000000
H    -0.722000000    -6.044000000     2.047000000
O     0.209000000    -4.978000000    -1.082000000
H     0.857000000    -4.286000000    -0.951000000
H     0.730000000    -5.772000000    -1.208000000
O     0.348000000    -5.291000000     3.492000000
H     1.076000000    -4.777000000     3.843000000
H     0.706000000    -6.173000000     3.390000000
O     2.635000000     6.428000000     0.484000000
H     2.439000000     5.659000000     1.018000000
H     1.979000000     6.410000000    -0.213000000
O     2.660000000    -2.944000000    -1.461000000
H     2.704000000    -2.601000000    -0.568000000
H     3.158000000    -2.315000000    -1.984000000
O    -0.324000000    -0.979000000     5.223000000
H    -0.689000000    -0.487000000     4.487000000
H    -1.070000000    -1.133000000     5.802000000
O    -1.659000000    -2.143000000    -8.160000000
H    -2.165000000    -1.585000000    -8.750000000
H    -1.394000000    -1.560000000    -7.448000000
O     2.036000000    -2.198000000    -7.373000000
H     1.285000000    -2.235000000    -7.965000000
H     1.663000000    -2.337000000    -6.503000000
O     3.794000000     2.656000000     2.750000000
H     4.653000000     2.432000000     2.394000000
H     3.699000000     2.094000000     3.519000000
O    -3.522000000    -0.374000000     0.171000000
H    -2.662000000     0.043000000     0.226000000
H    -4.135000000     0.354000000     0.065000000
O     0.980000000     1.316000000    -5.633000000
H     1.348000000     1.474000000    -6.503000000
H     1.726000000     1.030000000    -5.106000000
O    -1.575000000    -5.857000000    -4.468000000
H    -0.653000000    -6.072000000    -4.615000000
H    -1.768000000    -5.179000000    -5.115000000
O    -1.187000000     2.799000000    -4.855000000
H    -0.311000000     2.539000000    -5.140000000
H    -1.208000000     3.748000000    -4.981000000
O    -3.272000000     0.950000000    -5.597000000
H    -4.106000000     1.063000000    -6.053000000
H    -2.832000000     1.795000000    -5.690000000
O     4.415000000    -1.127000000    -3.022000000
H     4.730000000    -0.991000000    -2.128000000
H     3.918000000    -0.335000000    -3.224000000
O     3.506000000     1.326000000    -4.282000000
H     4.011000000     1.822000000    -4.926000000
H     3.126000000     1.993000000    -3.711000000
O     4.828000000    -0.184000000    -0.435000000
H     5.102000000    -0.785000000     0.258000000
H     4.066000000     0.268000000    -0.073000000
O     3.377000000     1.086000000     5.030000000
H     2.803000000     0.407000000     5.385000000
H     3.945000000     1.327000000     5.762000000
O    -0.869000000    -0.462000000    -6.105000000
H    -1.605000000    -0.020000000    -5.682000000
H    -0.106000000     0.065000000    -5.870000000
O     0.329000000     5.788000000    -1.320000000
H    -0.374000000     5.139000000    -1.354000000
H     0.511000000     5.992000000    -2.237000000
O     1.213000000    -3.773000000    -5.077000000
H     0.598000000    -3.419000000    -4.435000000
H     2.076000000    -3.536000000    -4.738000000
O    -3.439000000     4.504000000     1.482000000
H    -2.721000000     5.069000000     1.768000000
H    -3.374000000     3.731000000     2.043000000
O    -5.020000000    -1.991000000     2.123000000
H    -4.783000000    -1.503000000     1.334000000
H    -4.277000000    -1.867000000     2.713000000
O     3.918000000    -3.249000000    -4.711000000
H     4.326000000    -3.117000000    -5.567000000
H     4.207000000    -2.500000000    -4.190000000
O     1.691000000     4.189000000     2.521000000
H     0.938000000     3.622000000     2.687000000
H     2.452000000     3.641000000     2.713000000
O    -3.039000000     2.095000000    -2.796000000
H    -2.393000000     1.935000000    -3.484000000
H    -3.872000000     2.172000000    -3.263000000
O     0.999000000     2.156000000     7.938000000
H     0.805000000     2.865000000     8.551000000
H     0.653000000     2.463000000     7.100000000
O    -3.200000000     2.642000000     3.470000000
H    -3.352000000     2.810000000     4.400000000
H    -2.384000000     2.143000000     3.447000000
O     4.010000000    -5.150000000    -1.439000000
H     3.580000000    -4.325000000    -1.664000000
H     3.532000000    -5.469000000    -0.674000000
O    -4.023000000    -3.120000000    -0.414000000
H    -3.353000000    -3.195000000    -1.094000000
H    -4.219000000    -2.184000000    -0.373000000
O    -1.787000000    -3.906000000     4.915000000
H    -2.350000000    -3.444000000     4.294000000
H    -1.149000000    -4.363000000     4.367000000
O     3.668000000     2.462000000     0.044000000
H     3.046000000     2.743000000    -0.627000000
H     3.176000000     2.514000000     0.863000000
O    -3.356000000    -1.363000000     4.086000000
H    -2.982000000    -0.628000000     3.601000000
H    -3.433000000    -1.042000000     4.984000000
O    -1.663000000    -0.379000000     8.735000000
H    -2.117000000     0.462000000     8.791000000
H    -1.993000000    -0.776000000     7.929000000
O    -3.034000000     3.365000000     6.221000000
H    -3.010000000     4.196000000     6.696000000
H    -3.412000000     2.744000000     6.843000000
