144
-2803.65050
O     0.299000000    -5.058000000     1.520000000
H    -0.193000000    -5.749000000     1.964000000
H     0.067000000    -4.258000000     1.991000000
O     2.276000000    -6.181000000     4.810000000
H     2.422000000    -5.446000000     4.214000000
H     1.371000000    -6.445000000     4.647000000
O     1.050000000     3.489000000    -5.527000000
H     1.280000000     4.347000000    -5.171000000
H     0.093000000     3.483000000    -5.536000000
O    -0.049000000     6.950000000    -2.549000000
H     0.872000000     7.211000000    -2.562000000
H    -0.381000000     7.286000000    -1.717000000
O    -4.396000000    -3.008000000    -3.206000000
H    -4.506000000    -2.345000000    -3.888000000
H    -3.696000000    -3.573000000    -3.534000000
O    -3.394000000    -5.684000000    -1.850000000
H    -2.979000000    -6.531000000    -2.011000000
H    -3.048000000    -5.113000000    -2.537000000
O    -0.283000000     0.085000000     4.845000000
H    -0.446000000     0.700000000     4.130000000
H     0.347000000    -0.539000000     4.485000000
O     3.049000000    -5.330000000     0.658000000
H     3.576000000    -4.792000000     1.249000000
H     2.151000000    -5.027000000     0.797000000
O    -2.861000000     1.427000000     0.606000000
H    -3.216000000     1.248000000     1.477000000
H    -2.168000000     0.776000000     0.491000000
O    -1.797000000     4.138000000    -5.321000000
H    -1.821000000     5.094000000    -5.370000000
H    -2.293000000     3.926000000    -4.530000000
O    -3.091000000    -2.710000000     5.881000000
H    -3.240000000    -1.782000000     5.703000000
H    -2.193000000    -2.869000000     5.592000000
O     0.437000000    -0.179000000     7.548000000
H    -0.484000000    -0.282000000     7.786000000
H     0.446000000    -0.240000000     6.592000000
O     5.621000000     3.639000000    -1.577000000
H     4.873000000     3.045000000    -1.631000000
H     5.407000000     4.227000000    -0.852000000
O     0.041000000    -5.546000000    -3.290000000
H     0.188000000    -4.636000000    -3.549000000
H     0.855000000    -5.806000000    -2.858000000
O     1.232000000     4.409000000    -1.616000000
H     0.834000000     3.819000000    -0.976000000
H     0.504000000     4.684000000    -2.173000000
O     0.872000000    -7.432000000    -1.024000000
H     0.018000000    -7.004000000    -0.969000000
H     1.500000000    -6.710000000    -1.064000000
O    -0.255000000     4.833000000     2.141000000
H     0.615000000     4.772000000     1.746000000
H    -0.222000000     5.631000000     2.669000000
O    -1.018000000    -4.242000000     4.828000000
H    -0.588000000    -3.682000000     4.182000000
H    -1.680000000    -4.719000000     4.328000000
O     4.386000000     2.977000000     1.380000000
H     5.051000000     2.512000000     1.887000000
H     4.274000000     2.447000000     0.590000000
O     2.341000000     4.655000000     1.070000000
H     2.422000000     4.948000000     0.163000000
H     3.159000000     4.191000000     1.246000000
O    -4.045000000     2.823000000    -3.409000000
H    -4.475000000     2.634000000    -4.243000000
H    -4.707000000     2.625000000    -2.747000000
O     0.709000000     2.630000000     5.372000000
H     1.198000000     2.559000000     4.552000000
H     1.074000000     1.942000000     5.929000000
O    -0.657000000    -1.616000000    -6.376000000
H    -0.035000000    -1.838000000    -7.069000000
H    -0.891000000    -0.704000000    -6.547000000
O     5.058000000    -3.430000000     1.780000000
H     5.584000000    -4.224000000     1.875000000
H     5.621000000    -2.729000000     2.108000000
O     3.243000000     4.659000000    -3.560000000
H     2.507000000     4.479000000    -2.975000000
H     3.958000000     4.123000000    -3.217000000
O    -3.634000000    -0.805000000    -1.660000000
H    -3.590000000    -1.569000000    -2.236000000
H    -2.760000000    -0.418000000    -1.710000000
O    -1.241000000     1.390000000    -6.045000000
H    -0.636000000     1.621000000    -6.749000000
H    -1.511000000     2.231000000    -5.676000000
O    -2.319000000     4.172000000     0.457000000
H    -2.575000000     3.250000000     0.476000000
H    -1.525000000     4.212000000     0.990000000
O     3.379000000    -1.279000000    -4.091000000
H     3.973000000    -1.170000000    -3.349000000
H     2.811000000    -0.510000000    -4.059000000
O     2.546000000     1.587000000    -4.358000000
H     3.089000000     1.854000000    -5.100000000
H     1.761000000     2.130000000    -4.428000000
O     6.253000000    -2.320000000     5.084000000
H     6.860000000    -1.806000000     5.616000000
H     5.773000000    -1.669000000     4.573000000
O     2.160000000     6.053000000     3.433000000
H     2.269000000     5.438000000     2.708000000
H     2.600000000     6.851000000     3.140000000
O     3.602000000    -1.375000000     6.963000000
H     2.884000000    -1.166000000     7.560000000
H     3.354000000    -2.215000000     6.575000000
O    -3.916000000    -0.953000000    -4.944000000
H    -4.769000000    -0.550000000    -4.779000000
H    -3.376000000    -0.239000000    -5.284000000
O    -2.657000000     4.810000000    -2.219000000
H    -2.295000000     4.645000000    -1.348000000
H    -3.079000000     3.986000000    -2.462000000
O     3.427000000     2.040000000    -1.693000000
H     3.304000000     1.216000000    -1.221000000
H     3.051000000     1.878000000    -2.558000000
O    -5.402000000     2.012000000    -1.251000000
H    -5.339000000     1.856000000    -0.309000000
H    -5.168000000     1.173000000    -1.649000000
O    -5.266000000    -1.916000000     0.504000000
H    -4.690000000    -1.827000000    -0.255000000
H    -4.676000000    -2.122000000     1.229000000
O     1.185000000    -3.098000000    -4.141000000
H     1.997000000    -2.604000000    -4.247000000
H     0.541000000    -2.616000000    -4.660000000
O     3.630000000    -0.056000000     1.952000000
H     2.931000000    -0.515000000     2.418000000
H     4.421000000    -0.554000000     2.154000000
O     1.197000000    -2.990000000     7.287000000
H     0.450000000    -3.582000000     7.199000000
H     0.862000000    -2.257000000     7.804000000
O     2.949000000    -3.645000000     3.698000000
H     2.347000000    -2.902000000     3.737000000
H     3.629000000    -3.370000000     3.083000000
O    -3.279000000    -5.398000000     3.308000000
H    -3.624000000    -5.872000000     2.552000000
H    -4.032000000    -5.291000000     3.889000000
O     3.268000000    -0.535000000    -0.947000000
H     3.523000000    -0.303000000    -0.054000000
H     2.585000000    -1.196000000    -0.837000000
O    -2.765000000    -2.821000000     2.347000000
H    -2.991000000    -3.591000000     2.869000000
H    -1.815000000    -2.744000000     2.432000000
O    -0.910000000    -4.733000000     7.534000000
H    -1.020000000    -4.786000000     6.585000000
H    -0.049000000    -5.118000000     7.697000000
O    -3.075000000     0.126000000     5.633000000
H    -2.122000000     0.201000000     5.585000000
H    -3.368000000     0.985000000     5.935000000
O     2.681000000     2.035000000     3.693000000
H     2.843000000     1.094000000     3.765000000
H     3.075000000     2.283000000     2.857000000
