144
-2828.32040
O    -3.546000000    -0.102000000    -0.998000000
H    -3.495000000     0.766000000    -0.596000000
H    -2.638000000    -0.403000000    -1.033000000
O     6.489000000    -0.105000000    -2.521000000
H     7.211000000     0.348000000    -2.956000000
H     6.901000000    -0.568000000    -1.791000000
O     4.565000000     1.247000000    -6.794000000
H     3.896000000     1.851000000    -6.471000000
H     4.751000000     0.675000000    -6.050000000
O    -5.423000000     1.536000000     5.274000000
H    -6.163000000     1.040000000     4.925000000
H    -5.112000000     1.014000000     6.014000000
O    -2.326000000    -0.025000000    -4.270000000
H    -3.235000000     0.249000000    -4.146000000
H    -2.289000000    -0.329000000    -5.176000000
O     5.532000000    -1.022000000    -4.929000000
H     5.751000000    -0.628000000    -4.085000000
H     4.857000000    -1.669000000    -4.724000000
O     0.992000000    -6.042000000     4.477000000
H     0.384000000    -6.630000000     4.926000000
H     0.505000000    -5.223000000     4.380000000
O     0.718000000    -1.531000000     5.431000000
H     1.475000000    -1.218000000     4.937000000
H     0.374000000    -2.255000000     4.909000000
O    -4.631000000    -0.224000000     6.846000000
H    -3.917000000    -0.316000000     6.214000000
H    -4.212000000     0.131000000     7.630000000
O    -6.591000000    -0.881000000     2.029000000
H    -6.734000000    -1.340000000     1.201000000
H    -6.607000000     0.047000000     1.794000000
O    -1.444000000     2.373000000    -3.545000000
H    -1.518000000     1.421000000    -3.607000000
H    -1.462000000     2.674000000    -4.454000000
O    -4.841000000    -1.250000000     3.970000000
H    -5.548000000    -1.127000000     3.336000000
H    -4.271000000    -0.492000000     3.843000000
O     0.836000000     4.135000000    -3.230000000
H     0.404000000     4.980000000    -3.351000000
H     0.119000000     3.502000000    -3.191000000
O     3.665000000    -4.727000000    -3.504000000
H     4.400000000    -5.324000000    -3.644000000
H     3.569000000    -4.266000000    -4.338000000
O    -5.852000000     1.917000000    -1.695000000
H    -5.290000000     2.232000000    -0.987000000
H    -5.749000000     0.966000000    -1.677000000
O    -0.086000000     3.489000000     2.058000000
H     0.351000000     3.808000000     1.269000000
H    -0.512000000     4.264000000     2.426000000
O    -0.400000000    -4.043000000    -1.371000000
H     0.033000000    -3.239000000    -1.658000000
H    -0.054000000    -4.721000000    -1.952000000
O     0.737000000    -5.543000000    -3.373000000
H     1.321000000    -6.259000000    -3.123000000
H     1.325000000    -4.820000000    -3.593000000
O    -2.180000000    -5.670000000     5.340000000
H    -1.976000000    -5.084000000     6.069000000
H    -2.102000000    -5.120000000     4.561000000
O    -3.524000000     4.393000000     4.964000000
H    -4.317000000     4.884000000     4.750000000
H    -3.459000000     3.730000000     4.277000000
O    -0.018000000    -5.522000000     0.901000000
H     0.567000000    -5.069000000     1.509000000
H    -0.118000000    -4.914000000     0.168000000
O    -3.157000000    -3.949000000    -1.347000000
H    -2.213000000    -4.079000000    -1.439000000
H    -3.286000000    -3.777000000    -0.415000000
O    -6.049000000    -3.887000000     3.899000000
H    -6.378000000    -3.977000000     3.005000000
H    -5.784000000    -2.969000000     3.966000000
O     4.846000000     4.809000000    -2.170000000
H     4.572000000     4.426000000    -1.336000000
H     4.699000000     4.115000000    -2.812000000
O    -1.195000000     2.844000000    -6.363000000
H    -1.130000000     2.151000000    -7.020000000
H    -0.555000000     3.499000000    -6.641000000
O    -0.761000000    -3.646000000     7.431000000
H    -1.360000000    -2.978000000     7.096000000
H    -1.115000000    -3.876000000     8.290000000
O     3.915000000    -4.176000000    -0.526000000
H     3.970000000    -5.064000000    -0.175000000
H     3.532000000    -4.285000000    -1.397000000
O     2.492000000     1.513000000     2.394000000
H     1.565000000     1.281000000     2.332000000
H     2.512000000     2.257000000     2.996000000
O    -0.600000000     1.680000000     4.059000000
H    -1.069000000     0.945000000     3.665000000
H    -0.588000000     2.350000000     3.375000000
O    -1.036000000     6.167000000    -2.652000000
H    -1.736000000     5.710000000    -2.185000000
H    -0.711000000     6.812000000    -2.024000000
O    -3.560000000    -3.008000000     6.089000000
H    -3.973000000    -2.654000000     5.301000000
H    -3.793000000    -3.936000000     6.086000000
O    -2.810000000     4.369000000    -1.823000000
H    -2.199000000     3.766000000    -2.245000000
H    -3.574000000     3.831000000    -1.617000000
O     2.338000000    -0.801000000    -5.193000000
H     2.194000000     0.140000000    -5.294000000
H     1.655000000    -1.083000000    -4.585000000
O    -0.081000000    -2.315000000    -4.174000000
H    -0.262000000    -2.888000000    -4.919000000
H    -0.686000000    -1.582000000    -4.282000000
O     1.228000000     4.666000000    -0.376000000
H     0.961000000     5.576000000    -0.251000000
H     1.267000000     4.556000000    -1.326000000
O     5.065000000    -1.653000000     0.074000000
H     4.797000000    -2.492000000    -0.300000000
H     5.961000000    -1.800000000     0.376000000
O     2.502000000     2.602000000    -4.861000000
H     1.954000000     3.072000000    -4.233000000
H     3.337000000     2.484000000    -4.409000000
O     3.213000000    -1.030000000     3.880000000
H     3.887000000    -1.707000000     3.942000000
H     3.157000000    -0.833000000     2.945000000
O    -4.162000000     2.366000000     2.960000000
H    -4.645000000     1.992000000     3.696000000
H    -3.433000000     1.761000000     2.820000000
O    -2.639000000    -5.818000000     2.024000000
H    -3.013000000    -4.971000000     1.780000000
H    -1.817000000    -5.866000000     1.536000000
O    -3.714000000    -3.393000000     1.294000000
H    -4.650000000    -3.211000000     1.379000000
H    -3.291000000    -2.734000000     1.844000000
O     4.502000000     0.985000000     0.596000000
H     3.711000000     0.935000000     1.134000000
H     4.758000000     0.072000000     0.464000000
O     4.255000000     3.784000000     0.207000000
H     4.206000000     2.837000000     0.072000000
H     3.451000000     4.000000000     0.678000000
O     2.221000000    -3.498000000     1.803000000
H     2.725000000    -3.053000000     1.122000000
H     2.850000000    -3.645000000     2.510000000
O     4.739000000     2.092000000    -3.684000000
H     4.673000000     1.312000000    -3.133000000
H     5.678000000     2.277000000    -3.725000000
O    -1.188000000     0.085000000     6.645000000
H    -0.360000000    -0.251000000     6.301000000
H    -1.480000000     0.719000000     5.991000000
O    -4.604000000     2.969000000     0.357000000
H    -4.222000000     2.623000000     1.164000000
H    -4.633000000     3.916000000     0.492000000
O     0.219000000    -3.533000000     3.603000000
H    -0.575000000    -3.151000000     3.228000000
H     0.877000000    -3.442000000     2.913000000
