144
-2804.46360
O    -2.212000000    -1.675000000     4.503000000
H    -2.759000000    -1.222000000     3.862000000
H    -1.620000000    -2.212000000     3.976000000
O     5.945000000     1.540000000    -2.668000000
H     6.694000000     1.286000000    -2.129000000
H     5.629000000     0.717000000    -3.042000000
O     1.652000000    -2.616000000    -6.625000000
H     0.789000000    -2.610000000    -6.210000000
H     1.470000000    -2.752000000    -7.555000000
O     1.028000000     7.890000000     3.203000000
H     0.889000000     6.943000000     3.196000000
H     0.450000000     8.213000000     3.894000000
O     5.917000000    -1.286000000    -3.006000000
H     5.285000000    -1.927000000    -2.681000000
H     6.064000000    -1.536000000    -3.918000000
O     3.271000000     1.416000000     1.699000000
H     4.138000000     1.091000000     1.941000000
H     2.671000000     0.719000000     1.966000000
O     0.369000000     4.451000000    -2.614000000
H     0.527000000     4.185000000    -3.519000000
H     0.512000000     5.398000000    -2.615000000
O     3.638000000    -1.140000000    -5.380000000
H     4.506000000    -1.530000000    -5.277000000
H     3.079000000    -1.869000000    -5.651000000
O     5.284000000    -3.722000000     2.035000000
H     5.256000000    -2.913000000     2.546000000
H     4.384000000    -3.846000000     1.733000000
O    -1.011000000    -2.870000000    -6.033000000
H    -1.732000000    -3.298000000    -6.496000000
H    -1.422000000    -2.138000000    -5.573000000
O    -2.609000000    -3.917000000     0.244000000
H    -2.460000000    -3.827000000     1.185000000
H    -3.095000000    -4.737000000     0.155000000
O    -0.055000000    -3.444000000     3.675000000
H     0.231000000    -4.337000000     3.865000000
H     0.421000000    -2.901000000     4.303000000
O     2.354000000     4.075000000     0.975000000
H     1.399000000     4.122000000     0.930000000
H     2.535000000     3.194000000     1.304000000
O     2.365000000     2.419000000     6.078000000
H     1.676000000     2.910000000     6.525000000
H     1.900000000     1.722000000     5.615000000
O    -3.907000000    -1.359000000     2.508000000
H    -3.886000000    -1.159000000     1.572000000
H    -4.691000000    -0.915000000     2.831000000
O    -2.524000000     4.286000000    -1.804000000
H    -1.616000000     3.987000000    -1.754000000
H    -2.547000000     5.075000000    -1.262000000
O     3.990000000    -6.519000000    -1.436000000
H     4.082000000    -7.368000000    -1.870000000
H     4.753000000    -6.460000000    -0.862000000
O     2.156000000     5.367000000     5.694000000
H     2.929000000     4.898000000     5.382000000
H     1.462000000     5.120000000     5.082000000
O    -2.060000000     0.000000000    -5.083000000
H    -2.131000000     0.781000000    -4.534000000
H    -2.951000000    -0.349000000    -5.119000000
O     2.353000000     3.639000000    -4.832000000
H     1.962000000     3.344000000    -5.654000000
H     2.477000000     2.837000000    -4.324000000
O    -5.233000000     1.705000000    -0.224000000
H    -4.683000000     2.085000000    -0.910000000
H    -4.683000000     1.721000000     0.560000000
O    -2.049000000    -4.943000000    -2.444000000
H    -1.348000000    -5.016000000    -3.092000000
H    -1.632000000    -4.534000000    -1.685000000
O    -1.990000000     2.831000000     5.310000000
H    -2.484000000     2.013000000     5.261000000
H    -1.294000000     2.731000000     4.661000000
O    -2.118000000     2.029000000    -3.321000000
H    -2.843000000     2.563000000    -2.996000000
H    -1.675000000     1.720000000    -2.530000000
O     2.603000000    -4.114000000    -3.680000000
H     3.081000000    -4.742000000    -4.223000000
H     3.173000000    -3.969000000    -2.925000000
O    -0.167000000    -5.051000000    -4.322000000
H     0.776000000    -4.910000000    -4.238000000
H    -0.476000000    -4.308000000    -4.840000000
O     2.662000000    -3.856000000     1.140000000
H     2.735000000    -4.102000000     0.218000000
H     2.101000000    -4.530000000     1.524000000
O    -3.770000000     4.886000000     5.043000000
H    -4.668000000     4.568000000     5.142000000
H    -3.224000000     4.115000000     5.198000000
O     4.607000000    -3.801000000    -1.880000000
H     4.359000000    -4.572000000    -1.371000000
H     5.502000000    -3.606000000    -1.601000000
O    -4.023000000    -1.287000000    -0.235000000
H    -3.650000000    -2.163000000    -0.339000000
H    -3.691000000    -0.795000000    -0.987000000
O     1.397000000    -5.771000000    -0.852000000
H     1.532000000    -5.077000000    -1.497000000
H     2.056000000    -6.431000000    -1.070000000
O    -4.285000000     1.404000000     5.117000000
H    -4.707000000     1.676000000     5.932000000
H    -4.949000000     0.881000000     4.667000000
O    -1.726000000    -4.442000000     5.793000000
H    -1.175000000    -3.963000000     5.174000000
H    -2.540000000    -3.939000000     5.827000000
O     0.876000000     1.022000000     4.215000000
H     0.174000000     1.321000000     3.637000000
H     1.457000000     0.519000000     3.645000000
O     0.163000000     3.302000000     7.187000000
H     0.102000000     4.162000000     7.604000000
H    -0.651000000     3.219000000     6.691000000
O    -3.071000000     7.937000000     0.425000000
H    -2.310000000     7.380000000     0.261000000
H    -3.403000000     8.151000000    -0.447000000
O     0.095000000     5.200000000     3.538000000
H    -0.833000000     5.366000000     3.706000000
H     0.098000000     4.566000000     2.821000000
O     2.915000000     1.164000000    -4.042000000
H     3.689000000     1.306000000    -3.497000000
H     3.086000000     0.336000000    -4.490000000
O    -0.903000000     0.081000000     6.112000000
H    -1.548000000    -0.392000000     5.587000000
H    -0.373000000     0.554000000     5.470000000
O     2.054000000    -1.085000000     2.702000000
H     2.679000000    -1.781000000     2.499000000
H     1.207000000    -1.529000000     2.750000000
O    -3.882000000    -3.022000000    -3.398000000
H    -3.172000000    -3.623000000    -3.174000000
H    -4.575000000    -3.225000000    -2.770000000
O    -1.061000000     5.939000000     0.059000000
H    -0.271000000     6.328000000    -0.317000000
H    -0.765000000     5.109000000     0.432000000
O     0.583000000     0.393000000    -5.492000000
H     0.963000000     0.896000000    -4.772000000
H    -0.301000000     0.180000000    -5.195000000
O    -3.751000000    -6.103000000    -4.060000000
H    -3.187000000    -5.694000000    -3.403000000
H    -3.918000000    -6.982000000    -3.719000000
O     3.580000000     5.409000000    -0.909000000
H     3.661000000     6.338000000    -0.693000000
H     3.187000000     5.015000000    -0.130000000
O    -2.180000000     6.459000000     3.341000000
H    -2.557000000     5.801000000     3.925000000
H    -2.656000000     6.350000000     2.518000000
O    -3.676000000     2.420000000     2.036000000
H    -2.797000000     2.684000000     2.307000000
H    -4.068000000     2.045000000     2.824000000
O    -0.931000000     3.195000000    -5.919000000
H    -0.134000000     2.835000000    -6.308000000
H    -1.001000000     2.757000000    -5.070000000
