144
-2835.02761
O    -5.494000000     0.086000000     2.429000000
H    -5.200000000     0.316000000     1.547000000
H    -4.728000000     0.234000000     2.983000000
O    -4.425000000    -6.243000000     0.904000000
H    -4.925000000    -5.452000000     1.109000000
H    -3.516000000    -6.006000000     1.085000000
O     4.346000000    -0.345000000    -4.914000000
H     3.877000000    -1.094000000    -4.546000000
H     4.981000000    -0.733000000    -5.515000000
O    -4.791000000     0.028000000     7.407000000
H    -5.218000000    -0.471000000     6.711000000
H    -3.875000000     0.086000000     7.134000000
O     2.134000000     1.886000000     6.491000000
H     2.691000000     1.109000000     6.528000000
H     1.472000000     1.675000000     5.833000000
O    -0.020000000    -6.752000000     4.133000000
H     0.782000000    -6.261000000     4.312000000
H    -0.555000000    -6.632000000     4.918000000
O    -1.411000000    -2.306000000     5.783000000
H    -1.330000000    -1.801000000     4.974000000
H    -2.077000000    -2.965000000     5.588000000
O     5.043000000     2.412000000     0.350000000
H     4.973000000     2.891000000    -0.476000000
H     4.174000000     2.488000000     0.745000000
O     1.475000000    -1.207000000    -5.818000000
H     2.288000000    -0.751000000    -6.037000000
H     1.719000000    -2.132000000    -5.790000000
O    -3.504000000    -3.593000000     3.876000000
H    -2.754000000    -3.415000000     3.308000000
H    -4.244000000    -3.676000000     3.275000000
O    -0.623000000     3.492000000    -4.713000000
H    -0.755000000     2.554000000    -4.853000000
H    -1.091000000     3.681000000    -3.900000000
O     0.495000000     5.859000000    -5.689000000
H     0.244000000     4.935000000    -5.680000000
H     0.119000000     6.217000000    -4.884000000
O    -4.426000000     0.628000000    -0.021000000
H    -4.567000000     0.419000000    -0.945000000
H    -3.975000000     1.472000000    -0.032000000
O    -1.646000000     4.191000000     2.707000000
H    -1.446000000     4.723000000     1.936000000
H    -0.919000000     4.357000000     3.308000000
O     1.626000000    -4.410000000    -4.446000000
H     2.466000000    -3.982000000    -4.285000000
H     1.858000000    -5.274000000    -4.787000000
O     5.573000000     4.039000000    -5.208000000
H     5.563000000     3.144000000    -4.870000000
H     4.680000000     4.357000000    -5.073000000
O    -3.566000000    -2.394000000    -0.373000000
H    -3.711000000    -1.449000000    -0.343000000
H    -2.933000000    -2.517000000    -1.081000000
O     0.071000000    -3.075000000     7.845000000
H    -0.516000000    -2.821000000     7.133000000
H    -0.514000000    -3.305000000     8.567000000
O    -3.824000000     3.629000000     4.288000000
H    -3.875000000     2.676000000     4.219000000
H    -3.025000000     3.861000000     3.814000000
O    -0.262000000    -4.322000000    -2.201000000
H     0.321000000    -4.350000000    -2.960000000
H    -0.007000000    -5.079000000    -1.675000000
O    -0.898000000    -3.553000000    -5.892000000
H    -1.059000000    -2.734000000    -5.423000000
H    -0.191000000    -3.974000000    -5.404000000
O     2.460000000     3.756000000    -4.649000000
H     1.557000000     4.006000000    -4.843000000
H     2.468000000     2.802000000    -4.727000000
O    -4.765000000    -1.607000000     4.956000000
H    -4.335000000    -2.372000000     4.572000000
H    -5.425000000    -1.974000000     5.544000000
O     2.289000000     2.362000000     1.106000000
H     1.853000000     1.530000000     1.292000000
H     2.274000000     2.831000000     1.939000000
O    -0.026000000     1.538000000     4.574000000
H    -0.635000000     0.817000000     4.417000000
H    -0.510000000     2.322000000     4.311000000
O     0.202000000    -6.771000000    -1.074000000
H    -0.322000000    -6.919000000    -0.287000000
H     1.063000000    -7.131000000    -0.860000000
O    -3.017000000     3.055000000     0.167000000
H    -2.627000000     3.278000000     1.013000000
H    -3.782000000     3.625000000     0.098000000
O    -5.362000000    -3.698000000     1.941000000
H    -6.279000000    -3.824000000     1.700000000
H    -5.074000000    -2.955000000     1.412000000
O     0.490000000     4.538000000     4.596000000
H     1.398000000     4.393000000     4.330000000
H     0.391000000     4.026000000     5.399000000
O    -2.312000000    -2.580000000    -2.838000000
H    -3.161000000    -2.755000000    -3.244000000
H    -1.845000000    -3.414000000    -2.891000000
O    -0.753000000     5.621000000     0.389000000
H    -1.336000000     5.896000000    -0.319000000
H    -0.010000000     5.214000000    -0.057000000
O    -2.633000000     2.548000000    -2.851000000
H    -3.319000000     3.059000000    -3.281000000
H    -2.706000000     2.779000000    -1.925000000
O     3.332000000    -2.909000000    -1.756000000
H     3.326000000    -2.866000000    -0.800000000
H     3.146000000    -2.013000000    -2.037000000
O    -0.223000000     1.106000000    -5.695000000
H     0.135000000     0.224000000    -5.793000000
H    -0.375000000     1.405000000    -6.591000000
O     2.018000000     0.156000000     2.867000000
H     1.470000000    -0.622000000     2.766000000
H     1.542000000     0.704000000     3.491000000
O    -3.353000000     0.838000000     4.151000000
H    -3.772000000     0.248000000     4.777000000
H    -2.496000000     0.444000000     3.988000000
O    -1.216000000    -6.887000000     1.560000000
H    -1.634000000    -6.044000000     1.383000000
H    -0.971000000    -6.843000000     2.484000000
O     1.626000000    -4.515000000     5.751000000
H     1.126000000    -4.035000000     6.412000000
H     1.327000000    -4.155000000     4.917000000
O    -2.319000000    -4.396000000     1.259000000
H    -2.905000000    -4.099000000     0.563000000
H    -1.854000000    -3.605000000     1.534000000
O     4.757000000     0.452000000     2.243000000
H     3.845000000     0.535000000     2.521000000
H     4.864000000     1.124000000     1.570000000
O     1.828000000     5.351000000    -0.947000000
H     2.332000000     6.052000000    -0.534000000
H     2.400000000     4.585000000    -0.902000000
O     1.711000000    -4.707000000     0.238000000
H     1.908000000    -3.950000000    -0.315000000
H     2.411000000    -5.331000000     0.047000000
O     3.498000000    -2.216000000     1.272000000
H     3.781000000    -1.309000000     1.389000000
H     3.006000000    -2.418000000     2.068000000
O    -2.307000000    -0.113000000     6.816000000
H    -1.539000000     0.294000000     7.219000000
H    -2.004000000    -0.979000000     6.545000000
O     4.368000000     3.874000000    -2.199000000
H     4.599000000     3.155000000    -2.787000000
H     3.534000000     4.200000000    -2.535000000
O     1.230000000    -3.796000000     3.094000000
H     0.382000000    -3.419000000     2.860000000
H     1.526000000    -4.232000000     2.295000000
O     5.281000000     1.891000000    -3.791000000
H     6.137000000     1.732000000    -3.393000000
H     5.030000000     1.046000000    -4.163000000
O    -2.565000000     0.150000000    -4.212000000
H    -2.025000000    -0.512000000    -3.780000000
H    -2.278000000     0.980000000    -3.832000000
