144
-2807.49434
O    -3.665000000     0.319000000    -4.222000000
H    -2.994000000    -0.334000000    -4.420000000
H    -4.309000000    -0.152000000    -3.693000000
O     0.424000000     5.488000000     0.408000000
H     0.516000000     4.970000000    -0.392000000
H     0.702000000     4.898000000     1.109000000
O     3.533000000     3.721000000    -0.158000000
H     3.983000000     4.353000000     0.403000000
H     2.721000000     3.522000000     0.309000000
O    -1.892000000     6.708000000     3.148000000
H    -1.026000000     6.422000000     2.858000000
H    -1.764000000     6.977000000     4.058000000
O    -2.275000000    -5.598000000    -2.228000000
H    -1.356000000    -5.860000000    -2.170000000
H    -2.682000000    -6.271000000    -2.772000000
O     2.951000000     0.495000000    -3.902000000
H     2.586000000     0.084000000    -4.686000000
H     2.600000000     1.385000000    -3.912000000
O    -1.072000000     3.703000000     5.278000000
H    -0.890000000     4.641000000     5.216000000
H    -0.483000000     3.301000000     4.640000000
O     5.386000000     0.887000000    -3.151000000
H     4.472000000     0.799000000    -3.421000000
H     5.340000000     1.193000000    -2.245000000
O     1.761000000     2.070000000     7.840000000
H     1.234000000     2.797000000     8.171000000
H     2.145000000     2.403000000     7.028000000
O     5.631000000     1.895000000    -0.591000000
H     4.791000000     2.253000000    -0.302000000
H     6.281000000     2.351000000    -0.057000000
O     1.584000000     2.936000000    -5.049000000
H     0.888000000     3.464000000    -4.659000000
H     1.914000000     3.470000000    -5.772000000
O     1.428000000    -3.662000000    -6.541000000
H     1.580000000    -4.378000000    -5.924000000
H     1.818000000    -2.896000000    -6.120000000
O    -3.622000000    -2.615000000    -4.946000000
H    -4.468000000    -2.222000000    -5.158000000
H    -3.774000000    -3.082000000    -4.124000000
O     4.567000000     0.587000000     3.582000000
H     4.245000000     0.539000000     2.682000000
H     3.785000000     0.753000000     4.108000000
O    -5.443000000    -0.761000000    -2.500000000
H    -5.603000000    -1.591000000    -2.949000000
H    -5.115000000    -1.014000000    -1.637000000
O    -2.230000000    -1.370000000     4.681000000
H    -2.572000000    -0.731000000     5.306000000
H    -1.710000000    -1.972000000     5.213000000
O     0.622000000    -4.213000000     4.566000000
H     1.437000000    -3.749000000     4.376000000
H     0.261000000    -4.428000000     3.706000000
O     1.206000000     0.255000000    -6.096000000
H     0.541000000    -0.242000000    -5.621000000
H     1.064000000     1.163000000    -5.828000000
O    -4.813000000     0.156000000     1.787000000
H    -5.191000000     0.751000000     2.435000000
H    -4.679000000    -0.663000000     2.264000000
O    -2.417000000     1.942000000     3.238000000
H    -1.470000000     2.073000000     3.298000000
H    -2.516000000     1.019000000     3.003000000
O    -2.904000000    -4.541000000     0.287000000
H    -2.524000000    -4.931000000    -0.500000000
H    -3.563000000    -3.930000000    -0.042000000
O    -0.816000000     7.863000000     0.007000000
H    -0.675000000     7.666000000    -0.919000000
H    -0.578000000     7.056000000     0.463000000
O    -1.519000000     1.888000000     7.703000000
H    -1.639000000     2.495000000     6.972000000
H    -1.106000000     2.415000000     8.387000000
O     1.326000000    -0.400000000     4.539000000
H     0.580000000    -0.603000000     5.102000000
H     1.564000000     0.498000000     4.771000000
O     1.192000000     5.274000000     3.295000000
H     1.290000000     4.336000000     3.132000000
H     2.063000000     5.638000000     3.137000000
O    -1.262000000    -1.219000000    -5.319000000
H    -1.520000000    -1.031000000    -6.221000000
H    -1.739000000    -2.018000000    -5.095000000
O     3.617000000     4.327000000     4.982000000
H     3.785000000     4.634000000     5.873000000
H     3.336000000     5.110000000     4.508000000
O     0.287000000    -6.616000000    -1.867000000
H     0.415000000    -6.292000000    -0.976000000
H     0.131000000    -7.554000000    -1.761000000
O     4.366000000     5.932000000     1.033000000
H     4.402000000     6.560000000     0.312000000
H     3.923000000     6.402000000     1.739000000
O    -3.675000000     1.785000000    -0.142000000
H    -4.489000000     1.838000000    -0.643000000
H    -3.938000000     1.422000000     0.703000000
O    -1.256000000    -4.905000000     2.406000000
H    -1.876000000    -5.578000000     2.687000000
H    -1.747000000    -4.375000000     1.778000000
O     4.628000000     5.337000000    -2.112000000
H     4.650000000     4.874000000    -1.275000000
H     3.992000000     6.040000000    -1.981000000
O    -0.787000000     4.316000000    -4.767000000
H    -1.532000000     3.953000000    -5.246000000
H    -1.124000000     4.472000000    -3.884000000
O    -4.185000000    -3.632000000    -2.524000000
H    -3.911000000    -3.136000000    -1.752000000
H    -3.453000000    -4.223000000    -2.700000000
O    -4.650000000    -1.827000000     3.638000000
H    -3.719000000    -1.738000000     3.841000000
H    -4.902000000    -2.664000000     4.028000000
O     2.428000000     2.011000000     4.574000000
H     2.852000000     2.868000000     4.627000000
H     1.771000000     2.111000000     3.884000000
O     1.836000000     4.552000000    -1.887000000
H     1.810000000     3.819000000    -2.503000000
H     2.394000000     4.244000000    -1.173000000
O    -3.972000000    -2.007000000    -0.319000000
H    -3.644000000    -1.300000000     0.236000000
H    -4.493000000    -2.553000000     0.270000000
O     3.712000000    -5.582000000    -0.969000000
H     4.560000000    -5.533000000    -0.527000000
H     3.122000000    -5.076000000    -0.412000000
O    -1.546000000     4.739000000    -2.180000000
H    -1.638000000     4.638000000    -1.232000000
H    -0.932000000     5.467000000    -2.284000000
O    -3.840000000     2.452000000     5.671000000
H    -3.995000000     3.386000000     5.807000000
H    -3.209000000     2.416000000     4.952000000
O     3.512000000    -1.052000000    -1.417000000
H     3.530000000    -1.770000000    -2.050000000
H     3.222000000    -0.293000000    -1.923000000
O     0.124000000     6.744000000    -2.404000000
H     0.890000000     6.173000000    -2.350000000
H     0.325000000     7.347000000    -3.120000000
O     0.945000000    -5.476000000     0.850000000
H     1.655000000    -4.901000000     1.137000000
H     0.194000000    -5.213000000     1.382000000
O     2.478000000    -2.393000000     3.260000000
H     3.256000000    -1.836000000     3.257000000
H     1.887000000    -1.977000000     3.888000000
O     1.216000000    -6.045000000    -4.527000000
H     2.157000000    -5.881000000    -4.464000000
H     0.943000000    -6.219000000    -3.626000000
O    -2.537000000     4.142000000     0.308000000
H    -2.693000000     4.361000000     1.226000000
H    -2.636000000     3.190000000     0.268000000
O     3.452000000    -0.190000000     1.302000000
H     2.593000000    -0.231000000     1.721000000
H     3.270000000    -0.315000000     0.370000000
