144
-2831.40886
O     2.673000000    -1.550000000    -1.784000000
H     2.567000000    -2.501000000    -1.761000000
H     1.963000000    -1.243000000    -2.347000000
O    -2.998000000    -5.471000000    -0.466000000
H    -2.510000000    -5.286000000     0.337000000
H    -2.334000000    -5.476000000    -1.155000000
O    -0.468000000    -1.463000000    -6.170000000
H    -1.096000000    -1.465000000    -6.893000000
H    -0.812000000    -0.813000000    -5.557000000
O     3.807000000     1.671000000     0.857000000
H     4.644000000     1.799000000     1.304000000
H     3.150000000     1.950000000     1.495000000
O    -1.041000000    -4.928000000    -2.407000000
H    -0.357000000    -5.593000000    -2.329000000
H    -0.776000000    -4.398000000    -3.159000000
O     3.536000000     1.077000000    -5.827000000
H     2.746000000     0.608000000    -5.557000000
H     4.006000000     0.455000000    -6.382000000
O    -2.864000000     3.500000000     5.073000000
H    -2.153000000     4.126000000     4.938000000
H    -3.271000000     3.410000000     4.212000000
O     0.616000000    -1.518000000     4.195000000
H    -0.326000000    -1.677000000     4.136000000
H     0.699000000    -0.564000000     4.191000000
O     1.834000000    -0.757000000    -4.559000000
H     2.269000000    -1.604000000    -4.465000000
H     1.024000000    -0.954000000    -5.030000000
O     4.285000000     3.215000000     3.269000000
H     3.356000000     3.217000000     3.035000000
H     4.392000000     2.437000000     3.816000000
O     3.173000000    -3.166000000    -4.823000000
H     3.757000000    -3.924000000    -4.782000000
H     3.038000000    -3.019000000    -5.759000000
O     0.410000000     3.314000000    -4.095000000
H     0.698000000     3.774000000    -3.306000000
H     1.180000000     3.308000000    -4.663000000
O    -3.579000000    -1.446000000    -4.620000000
H    -3.144000000    -0.680000000    -4.245000000
H    -4.422000000    -1.488000000    -4.169000000
O     4.099000000    -0.735000000     3.336000000
H     3.825000000    -0.838000000     2.425000000
H     3.941000000    -1.591000000     3.733000000
O    -3.770000000     1.022000000    -3.196000000
H    -4.670000000     1.330000000    -3.090000000
H    -3.506000000     1.343000000    -4.058000000
O    -1.701000000    -0.928000000     6.851000000
H    -0.784000000    -0.879000000     7.119000000
H    -1.692000000    -0.699000000     5.922000000
O     0.648000000     5.009000000     1.868000000
H     1.066000000     4.202000000     2.167000000
H     1.329000000     5.460000000     1.369000000
O     1.671000000    -5.594000000    -5.366000000
H     1.054000000    -4.943000000    -5.032000000
H     2.132000000    -5.146000000    -6.075000000
O     5.293000000    -0.529000000    -2.255000000
H     4.424000000    -0.920000000    -2.173000000
H     5.521000000    -0.641000000    -3.178000000
O     2.188000000    -2.530000000     6.184000000
H     1.872000000    -2.228000000     5.333000000
H     1.802000000    -1.920000000     6.813000000
O     2.184000000     5.107000000     5.558000000
H     2.809000000     4.828000000     6.228000000
H     2.718000000     5.564000000     4.908000000
O    -6.492000000    -1.666000000    -3.101000000
H    -6.939000000    -1.131000000    -2.444000000
H    -5.811000000    -2.127000000    -2.612000000
O    -3.900000000     1.576000000     2.921000000
H    -3.360000000     1.676000000     2.137000000
H    -4.719000000     1.198000000     2.601000000
O    -1.868000000    -2.510000000     4.252000000
H    -2.638000000    -2.397000000     3.695000000
H    -2.218000000    -2.837000000     5.081000000
O    -2.005000000     0.401000000     4.447000000
H    -2.641000000     0.954000000     3.993000000
H    -1.159000000     0.656000000     4.077000000
O     0.034000000     3.731000000     5.563000000
H     0.256000000     3.070000000     4.907000000
H     0.764000000     4.350000000     5.537000000
O    -3.178000000    -1.251000000    -7.470000000
H    -3.283000000    -1.349000000    -6.524000000
H    -3.648000000    -1.998000000    -7.842000000
O     4.281000000     2.334000000     6.784000000
H     4.995000000     1.735000000     6.566000000
H     3.518000000     1.972000000     6.333000000
O    -0.300000000    -3.981000000    -4.649000000
H    -0.801000000    -4.696000000    -5.040000000
H    -0.640000000    -3.192000000    -5.070000000
O     0.693000000    -6.783000000    -1.050000000
H     1.396000000    -7.211000000    -1.539000000
H    -0.030000000    -7.409000000    -1.072000000
O     3.094000000     4.171000000    -0.075000000
H     3.628000000     3.502000000     0.354000000
H     3.574000000     4.987000000     0.066000000
O    -0.883000000     0.859000000    -4.859000000
H    -1.672000000     1.385000000    -4.992000000
H    -0.290000000     1.435000000    -4.376000000
O    -2.981000000     1.676000000    -0.671000000
H    -2.134000000     1.269000000    -0.491000000
H    -3.180000000     1.427000000    -1.573000000
O     2.906000000     3.693000000    -5.373000000
H     2.481000000     3.541000000    -6.217000000
H     3.244000000     2.835000000    -5.117000000
O    -5.011000000    -3.379000000    -1.311000000
H    -5.549000000    -4.007000000    -1.794000000
H    -4.284000000    -3.899000000    -0.970000000
O     2.456000000     1.303000000     5.086000000
H     1.809000000     1.551000000     4.426000000
H     2.919000000     0.559000000     4.699000000
O    -2.061000000     4.684000000     2.259000000
H    -1.149000000     4.869000000     2.033000000
H    -2.490000000     4.535000000     1.416000000
O     0.970000000    -3.777000000     2.062000000
H     0.950000000    -2.915000000     2.477000000
H     1.764000000    -4.189000000     2.403000000
O     0.651000000     7.292000000     3.211000000
H     1.334000000     7.269000000     3.881000000
H     0.699000000     6.434000000     2.790000000
O     0.881000000     4.695000000    -1.729000000
H     1.072000000     5.628000000    -1.826000000
H     1.550000000     4.375000000    -1.125000000
O    -3.560000000    -1.831000000     2.253000000
H    -3.461000000    -1.071000000     1.679000000
H    -4.457000000    -2.130000000     2.103000000
O     4.043000000     2.045000000    -1.878000000
H     3.712000000     2.176000000    -0.990000000
H     4.411000000     1.161000000    -1.868000000
O    -1.582000000     5.609000000    -1.990000000
H    -0.822000000     5.026000000    -1.997000000
H    -1.209000000     6.488000000    -1.938000000
O     4.597000000     4.779000000    -2.913000000
H     5.198000000     4.426000000    -3.569000000
H     4.120000000     4.014000000    -2.589000000
O    -1.664000000    -4.586000000     1.987000000
H    -0.743000000    -4.356000000     1.864000000
H    -2.088000000    -3.760000000     2.219000000
O     2.703000000    -6.689000000    -3.164000000
H     2.340000000    -6.452000000    -4.017000000
H     2.535000000    -5.925000000    -2.612000000
O     2.252000000    -4.353000000    -1.431000000
H     1.368000000    -4.696000000    -1.306000000
H     2.737000000    -4.653000000    -0.662000000
O     3.525000000    -1.047000000     0.782000000
H     3.213000000    -1.329000000    -0.077000000
H     3.400000000    -0.098000000     0.783000000
