144
-2805.31823
O     3.425000000    -0.777000000    -3.224000000
H     4.066000000    -1.319000000    -3.684000000
H     2.778000000    -0.550000000    -3.892000000
O    -1.368000000    -4.953000000    -1.630000000
H    -0.599000000    -4.416000000    -1.440000000
H    -1.018000000    -5.718000000    -2.087000000
O    -4.990000000    -0.367000000    -5.063000000
H    -5.377000000    -1.023000000    -5.642000000
H    -5.446000000     0.446000000    -5.283000000
O     2.976000000     6.064000000     6.151000000
H     3.369000000     5.997000000     7.021000000
H     2.800000000     5.158000000     5.897000000
O     1.439000000    -2.470000000    -7.149000000
H     0.554000000    -2.531000000    -6.788000000
H     1.365000000    -1.833000000    -7.859000000
O     5.489000000     0.754000000     1.795000000
H     6.262000000     1.303000000     1.932000000
H     4.762000000     1.274000000     2.138000000
O    -0.298000000    -6.803000000    -3.057000000
H     0.511000000    -7.282000000    -2.881000000
H    -0.102000000    -6.275000000    -3.831000000
O    -2.517000000     5.218000000     5.130000000
H    -2.063000000     6.061000000     5.120000000
H    -2.027000000     4.676000000     4.512000000
O    -5.635000000    -1.841000000    -1.481000000
H    -5.137000000    -2.373000000    -2.101000000
H    -6.440000000    -2.338000000    -1.332000000
O    -1.197000000    -6.462000000     2.051000000
H    -1.889000000    -5.802000000     2.070000000
H    -1.660000000    -7.292000000     1.933000000
O     0.467000000    -0.895000000     5.360000000
H    -0.483000000    -0.889000000     5.478000000
H     0.624000000    -0.283000000     4.641000000
O     1.285000000    -1.300000000     8.409000000
H     1.964000000    -1.956000000     8.567000000
H     1.137000000    -1.333000000     7.464000000
O     2.512000000     0.140000000    -5.516000000
H     2.228000000    -0.564000000    -6.100000000
H     1.889000000     0.849000000    -5.674000000
O     4.152000000     3.392000000     2.774000000
H     3.227000000     3.160000000     2.690000000
H     4.356000000     3.857000000     1.962000000
O    -1.316000000     2.945000000    -4.602000000
H    -1.853000000     2.401000000    -4.027000000
H    -0.551000000     3.171000000    -4.073000000
O     3.458000000    -5.058000000    -4.616000000
H     3.136000000    -4.873000000    -3.734000000
H     3.893000000    -4.250000000    -4.887000000
O    -5.238000000     2.208000000    -0.919000000
H    -4.383000000     1.828000000    -0.716000000
H    -5.141000000     2.557000000    -1.805000000
O    -2.344000000    -1.140000000    -5.885000000
H    -3.181000000    -0.967000000    -5.454000000
H    -1.903000000    -1.764000000    -5.309000000
O     4.437000000    -1.610000000     1.974000000
H     4.941000000    -0.797000000     1.958000000
H     4.018000000    -1.650000000     1.115000000
O    -1.515000000     0.833000000     8.058000000
H    -0.699000000     1.034000000     7.600000000
H    -1.960000000     0.204000000     7.490000000
O     1.327000000     4.648000000     1.335000000
H     1.330000000     3.781000000     1.740000000
H     2.034000000     4.612000000     0.690000000
O     2.049000000    -3.494000000     4.338000000
H     1.378000000    -2.858000000     4.588000000
H     2.638000000    -3.530000000     5.091000000
O     0.749000000     6.196000000     3.335000000
H     1.596000000     6.619000000     3.473000000
H     0.852000000     5.717000000     2.512000000
O    -3.134000000     1.562000000    -3.021000000
H    -3.404000000     0.781000000    -3.503000000
H    -3.927000000     2.095000000    -2.964000000
O    -2.136000000    -1.411000000     6.200000000
H    -2.345000000    -0.733000000     5.557000000
H    -2.825000000    -2.066000000     6.090000000
O     2.432000000     1.730000000     5.981000000
H     2.324000000     0.840000000     5.646000000
H     1.867000000     2.265000000     5.425000000
O    -2.117000000     0.904000000     4.550000000
H    -2.529000000     1.636000000     4.091000000
H    -1.240000000     0.845000000     4.170000000
O     1.008000000     3.715000000     4.826000000
H     1.056000000     3.213000000     4.013000000
H     1.156000000     4.622000000     4.557000000
O    -2.332000000    -0.132000000    -8.326000000
H    -2.201000000    -0.451000000    -7.433000000
H    -3.282000000    -0.139000000    -8.446000000
O     4.469000000     3.276000000     5.398000000
H     4.322000000     3.423000000     4.463000000
H     3.822000000     2.614000000     5.641000000
O     0.507000000    -5.392000000    -5.530000000
H     0.350000000    -4.713000000    -6.186000000
H     1.460000000    -5.477000000    -5.496000000
O    -3.644000000    -3.302000000    -3.149000000
H    -4.128000000    -4.016000000    -3.566000000
H    -2.842000000    -3.713000000    -2.827000000
O     3.923000000     4.379000000     0.062000000
H     4.064000000     3.632000000    -0.520000000
H     4.103000000     5.145000000    -0.484000000
O    -0.609000000     1.053000000    -6.319000000
H    -0.771000000     1.961000000    -6.063000000
H    -1.441000000     0.607000000    -6.159000000
O    -2.162000000     2.009000000     0.312000000
H    -1.319000000     1.731000000    -0.044000000
H    -2.584000000     1.197000000     0.594000000
O    -3.563000000    -5.004000000    -0.102000000
H    -3.458000000    -4.690000000     0.796000000
H    -2.687000000    -4.939000000    -0.482000000
O     3.333000000    -0.498000000     4.349000000
H     2.416000000    -0.608000000     4.097000000
H     3.829000000    -0.828000000     3.599000000
O    -4.162000000    -0.343000000     0.483000000
H    -4.963000000    -0.281000000     1.004000000
H    -4.413000000    -0.864000000    -0.280000000
O    -1.522000000     4.581000000     2.319000000
H    -0.581000000     4.731000000     2.403000000
H    -1.650000000     4.373000000     1.394000000
O     3.110000000    -5.371000000     2.385000000
H     2.765000000    -4.715000000     2.992000000
H     4.056000000    -5.226000000     2.387000000
O     2.964000000     3.302000000    -2.552000000
H     3.675000000     3.763000000    -2.997000000
H     3.339000000     2.454000000    -2.315000000
O    -3.375000000    -4.420000000     2.468000000
H    -2.728000000    -3.751000000     2.693000000
H    -3.882000000    -4.543000000     3.270000000
O     3.849000000     1.143000000    -0.753000000
H     4.340000000     1.230000000     0.064000000
H     3.578000000     0.225000000    -0.772000000
O     0.380000000     4.014000000    -2.555000000
H     1.232000000     3.613000000    -2.382000000
H     0.554000000     4.956000000    -2.552000000
O    -1.147000000    -4.434000000     4.112000000
H    -0.522000000    -4.866000000     3.529000000
H    -0.768000000    -4.535000000     4.985000000
O     0.047000000     3.914000000     7.455000000
H     0.817000000     4.076000000     8.001000000
H     0.406000000     3.661000000     6.605000000
O    -1.933000000     4.536000000    -0.740000000
H    -1.130000000     4.575000000    -1.259000000
H    -2.088000000     3.601000000    -0.608000000
O     3.474000000    -1.595000000    -0.677000000
H     3.430000000    -2.551000000    -0.690000000
H     3.434000000    -1.341000000    -1.599000000
