144
-2838.04374
O    -1.158000000     6.220000000     3.532000000
H    -0.695000000     5.854000000     4.285000000
H    -0.982000000     5.606000000     2.819000000
O     1.864000000     3.365000000     5.751000000
H     2.017000000     2.780000000     5.010000000
H     2.116000000     4.231000000     5.429000000
O    -0.428000000     5.007000000     1.286000000
H    -1.188000000     4.427000000     1.224000000
H    -0.080000000     5.039000000     0.395000000
O    -1.181000000     5.153000000     6.155000000
H    -1.199000000     4.205000000     6.028000000
H    -1.020000000     5.266000000     7.092000000
O     2.036000000     3.781000000     2.224000000
H     1.935000000     3.030000000     2.809000000
H     1.149000000     3.968000000     1.918000000
O    -3.753000000    -0.084000000    -1.203000000
H    -3.865000000    -0.970000000    -0.858000000
H    -4.069000000    -0.137000000    -2.105000000
O     3.345000000    -4.138000000    -3.687000000
H     4.225000000    -4.439000000    -3.462000000
H     3.438000000    -3.192000000    -3.801000000
O     4.435000000     0.865000000    -1.274000000
H     3.812000000     0.761000000    -0.555000000
H     4.262000000     1.742000000    -1.616000000
O    -6.461000000    -1.987000000     0.424000000
H    -6.439000000    -2.270000000    -0.491000000
H    -6.844000000    -1.110000000     0.394000000
O    -0.699000000    -5.114000000     0.541000000
H     0.221000000    -5.377000000     0.557000000
H    -0.761000000    -4.421000000     1.198000000
O     2.573000000    -2.786000000    -6.638000000
H     1.856000000    -2.350000000    -7.098000000
H     2.602000000    -2.360000000    -5.782000000
O     3.429000000     3.730000000    -0.301000000
H     3.306000000     3.608000000     0.641000000
H     3.605000000     4.665000000    -0.400000000
O     1.344000000     1.290000000    -6.835000000
H     1.808000000     0.789000000    -6.164000000
H     2.036000000     1.625000000    -7.405000000
O    -0.440000000     1.280000000     7.575000000
H    -0.338000000     0.501000000     7.029000000
H    -0.732000000     1.961000000     6.970000000
O     6.427000000    -2.572000000    -0.081000000
H     6.067000000    -2.025000000    -0.780000000
H     6.073000000    -3.444000000    -0.253000000
O     2.593000000     3.874000000    -5.242000000
H     1.646000000     4.008000000    -5.197000000
H     2.864000000     4.348000000    -6.029000000
O    -0.142000000     4.462000000    -4.476000000
H    -0.186000000     3.665000000    -3.949000000
H    -0.889000000     4.397000000    -5.071000000
O    -1.282000000     1.837000000    -5.685000000
H    -0.611000000     1.255000000    -6.041000000
H    -1.879000000     1.992000000    -6.417000000
O     3.573000000     5.997000000     2.800000000
H     4.107000000     5.395000000     3.320000000
H     3.055000000     5.428000000     2.231000000
O    -1.277000000     2.180000000    -2.933000000
H    -1.462000000     1.365000000    -2.466000000
H    -1.192000000     1.916000000    -3.850000000
O     1.452000000     1.567000000     3.812000000
H     1.629000000     0.629000000     3.744000000
H     0.504000000     1.624000000     3.934000000
O    -3.376000000    -4.107000000    -1.258000000
H    -2.562000000    -4.524000000    -0.973000000
H    -3.517000000    -4.440000000    -2.144000000
O    -4.127000000    -2.777000000     3.219000000
H    -3.518000000    -3.350000000     2.753000000
H    -3.626000000    -1.977000000     3.381000000
O     4.254000000    -1.443000000    -3.931000000
H     3.955000000    -0.658000000    -4.389000000
H     4.926000000    -1.127000000    -3.327000000
O    -1.347000000    -4.771000000     5.105000000
H    -1.285000000    -3.898000000     5.492000000
H    -2.010000000    -5.218000000     5.631000000
O     0.395000000    -1.146000000     6.306000000
H    -0.432000000    -1.598000000     6.140000000
H     0.826000000    -1.114000000     5.452000000
O     4.325000000     3.512000000    -3.198000000
H     3.862000000     3.776000000    -2.402000000
H     3.802000000     3.879000000    -3.911000000
O    -6.233000000    -1.338000000     4.131000000
H    -5.565000000    -1.856000000     3.683000000
H    -7.040000000    -1.840000000     4.021000000
O    -1.251000000    -3.471000000     2.787000000
H    -1.145000000    -4.099000000     3.502000000
H    -1.285000000    -2.618000000     3.221000000
O     3.718000000     1.073000000    -4.637000000
H     3.736000000     1.744000000    -3.955000000
H     4.007000000     1.527000000    -5.428000000
O    -1.964000000    -2.227000000     5.642000000
H    -2.723000000    -2.493000000     6.160000000
H    -2.334000000    -1.737000000     4.907000000
O     1.438000000    -1.247000000     3.739000000
H     2.205000000    -1.780000000     3.948000000
H     1.204000000    -1.503000000     2.846000000
O     6.386000000    -1.034000000    -2.314000000
H     7.259000000    -0.654000000    -2.413000000
H     5.911000000    -0.404000000    -1.772000000
O    -0.042000000    -2.273000000    -7.404000000
H    -0.339000000    -2.608000000    -8.250000000
H    -0.695000000    -2.587000000    -6.779000000
O     1.581000000     6.173000000    -2.315000000
H     1.137000000     7.015000000    -2.422000000
H     0.874000000     5.528000000    -2.314000000
O    -4.614000000     0.978000000     2.923000000
H    -3.727000000     0.621000000     2.957000000
H    -5.162000000     0.297000000     3.315000000
O     1.515000000    -3.932000000    -1.565000000
H     2.109000000    -3.903000000    -2.315000000
H     1.871000000    -4.622000000    -1.005000000
O    -4.945000000    -4.183000000     0.893000000
H    -4.834000000    -3.252000000     1.087000000
H    -4.232000000    -4.388000000     0.288000000
O    -5.137000000     1.743000000     0.387000000
H    -4.708000000     1.005000000    -0.045000000
H    -4.733000000     1.782000000     1.254000000
O    -1.597000000    -3.679000000    -5.257000000
H    -1.814000000    -3.786000000    -4.331000000
H    -0.886000000    -4.300000000    -5.409000000
O    -2.572000000     3.186000000     1.895000000
H    -3.415000000     3.132000000     2.346000000
H    -1.977000000     2.666000000     2.437000000
O    -4.566000000     3.517000000     4.616000000
H    -4.692000000     4.279000000     4.050000000
H    -5.004000000     2.801000000     4.155000000
O    -1.865000000     2.634000000     5.503000000
H    -1.627000000     1.948000000     4.879000000
H    -2.725000000     2.935000000     5.210000000
O     2.861000000     0.911000000     6.790000000
H     2.808000000     1.843000000     6.575000000
H     1.956000000     0.603000000     6.748000000
O     1.257000000    -2.140000000     1.237000000
H     1.534000000    -2.661000000     0.483000000
H     0.728000000    -1.437000000     0.860000000
O     0.659000000    -5.726000000    -5.167000000
H     1.240000000    -5.046000000    -5.508000000
H     0.906000000    -6.516000000    -5.649000000
O    -0.900000000     4.438000000    -1.608000000
H    -1.691000000     4.339000000    -1.078000000
H    -0.873000000     3.649000000    -2.149000000
O    -0.591000000    -4.692000000    -2.936000000
H    -0.147000000    -5.085000000    -3.687000000
H     0.112000000    -4.295000000    -2.422000000
