144
-2813.90067
O     3.989000000     3.635000000     5.928000000
H     3.570000000     2.828000000     5.629000000
H     3.857000000     4.254000000     5.210000000
O     1.026000000     5.815000000     2.222000000
H     0.324000000     5.170000000     2.307000000
H     1.087000000     5.981000000     1.282000000
O     0.658000000     4.607000000     6.742000000
H     0.219000000     3.882000000     6.295000000
H     0.022000000     4.908000000     7.391000000
O     2.837000000     5.423000000     4.052000000
H     2.420000000     4.711000000     4.537000000
H     2.162000000     5.726000000     3.444000000
O    -2.376000000     1.820000000     0.129000000
H    -1.567000000     1.326000000     0.261000000
H    -2.361000000     2.062000000    -0.797000000
O     2.720000000    -3.359000000    -2.936000000
H     3.125000000    -2.526000000    -2.695000000
H     2.429000000    -3.231000000    -3.839000000
O     3.804000000     2.590000000    -0.023000000
H     4.287000000     3.211000000     0.521000000
H     3.058000000     3.090000000    -0.353000000
O    -3.175000000    -6.180000000     3.078000000
H    -2.861000000    -7.082000000     3.023000000
H    -2.379000000    -5.651000000     3.126000000
O    -3.905000000    -0.360000000     1.322000000
H    -4.332000000    -0.684000000     0.529000000
H    -3.284000000     0.298000000     1.009000000
O    -1.001000000    -4.557000000     2.516000000
H    -0.250000000    -4.209000000     2.034000000
H    -1.087000000    -3.978000000     3.274000000
O     4.856000000    -1.129000000    -5.328000000
H     5.732000000    -1.476000000    -5.160000000
H     4.446000000    -1.087000000    -4.464000000
O     2.192000000     0.660000000    -5.561000000
H     2.331000000     1.299000000    -4.861000000
H     2.041000000    -0.167000000    -5.104000000
O    -0.826000000     0.994000000    -6.327000000
H    -0.294000000     0.828000000    -7.105000000
H    -0.295000000     1.587000000    -5.796000000
O     2.138000000     2.372000000     7.900000000
H     1.788000000     1.766000000     7.247000000
H     1.894000000     3.240000000     7.576000000
O     4.607000000    -2.286000000     1.611000000
H     4.711000000    -1.336000000     1.567000000
H     3.791000000    -2.415000000     2.096000000
O     1.563000000    -4.113000000    -5.322000000
H     2.063000000    -4.744000000    -5.839000000
H     1.423000000    -3.375000000    -5.915000000
O     0.339000000     3.070000000    -4.805000000
H     1.141000000     2.918000000    -4.307000000
H     0.242000000     4.022000000    -4.820000000
O    -5.618000000    -4.182000000    -3.082000000
H    -4.861000000    -4.277000000    -2.504000000
H    -5.832000000    -3.250000000    -3.044000000
O    -1.553000000     2.917000000    -2.389000000
H    -0.916000000     2.563000000    -3.008000000
H    -2.393000000     2.844000000    -2.842000000
O    -5.212000000    -0.945000000    -1.346000000
H    -5.801000000    -0.194000000    -1.277000000
H    -5.212000000    -1.165000000    -2.278000000
O     2.957000000     1.926000000     4.107000000
H     3.487000000     1.213000000     3.750000000
H     2.053000000     1.631000000     3.999000000
O    -2.933000000    -3.167000000    -3.187000000
H    -2.584000000    -3.179000000    -4.078000000
H    -2.753000000    -2.282000000    -2.871000000
O    -3.223000000     0.130000000     3.976000000
H    -3.687000000    -0.380000000     3.312000000
H    -2.314000000    -0.163000000     3.911000000
O     3.897000000    -0.678000000    -2.642000000
H     3.519000000     0.193000000    -2.525000000
H     4.513000000    -0.772000000    -1.915000000
O    -2.270000000    -3.001000000     6.519000000
H    -2.340000000    -3.372000000     7.399000000
H    -2.907000000    -3.493000000     6.001000000
O     1.295000000    -2.081000000    -7.141000000
H     2.080000000    -1.533000000    -7.152000000
H     1.249000000    -2.452000000    -8.022000000
O     2.074000000     4.408000000    -1.311000000
H     1.209000000     4.804000000    -1.205000000
H     2.607000000     5.100000000    -1.704000000
O    -3.169000000     2.517000000    -6.777000000
H    -2.381000000     2.080000000    -6.454000000
H    -3.879000000     2.146000000    -6.253000000
O    -0.583000000    -2.789000000     4.542000000
H    -1.144000000    -2.717000000     5.314000000
H    -0.609000000    -1.919000000     4.145000000
O    -1.950000000    -0.259000000     7.148000000
H    -2.057000000    -1.055000000     6.626000000
H    -2.837000000    -0.037000000     7.430000000
O     2.779000000     2.408000000    -3.567000000
H     2.931000000     2.783000000    -2.700000000
H     3.641000000     2.407000000    -3.983000000
O     1.104000000     0.284000000     6.019000000
H     0.300000000    -0.063000000     6.405000000
H     0.821000000     0.683000000     5.196000000
O     5.912000000     0.061000000    -0.602000000
H     5.109000000     0.115000000    -0.083000000
H     6.610000000     0.291000000     0.011000000
O     2.308000000    -2.979000000     3.132000000
H     1.466000000    -3.198000000     3.531000000
H     2.766000000    -3.816000000     3.063000000
O    -1.773000000    -2.961000000    -5.851000000
H    -1.164000000    -3.074000000    -6.581000000
H    -2.508000000    -3.537000000    -6.060000000
O    -3.206000000     2.946000000     3.664000000
H    -3.057000000     2.001000000     3.634000000
H    -3.419000000     3.125000000     4.579000000
O     0.491000000    -4.250000000    -0.253000000
H     0.754000000    -3.877000000    -1.094000000
H     1.297000000    -4.622000000     0.107000000
O    -4.931000000    -5.125000000     1.421000000
H    -4.854000000    -4.208000000     1.685000000
H    -4.296000000    -5.587000000     1.968000000
O    -3.364000000    -0.554000000    -5.978000000
H    -2.730000000     0.159000000    -6.053000000
H    -2.828000000    -1.344000000    -5.904000000
O    -5.085000000    -2.640000000     2.957000000
H    -6.009000000    -2.391000000     2.934000000
H    -4.674000000    -2.094000000     2.286000000
O    -3.853000000     3.635000000     1.230000000
H    -3.407000000     2.870000000     0.868000000
H    -3.538000000     3.690000000     2.133000000
O    -0.644000000     3.648000000     2.714000000
H    -1.385000000     3.510000000     3.305000000
H    -0.032000000     2.945000000     2.930000000
O    -0.696000000     2.634000000     5.631000000
H    -0.651000000     1.903000000     5.014000000
H    -1.528000000     2.510000000     6.088000000
O     3.744000000     0.256000000     1.173000000
H     2.801000000     0.261000000     1.337000000
H     3.922000000     1.107000000     0.771000000
O    -0.433000000    -4.979000000    -3.363000000
H    -1.102000000    -4.361000000    -3.658000000
H     0.327000000    -4.790000000    -3.912000000
O    -0.438000000     5.376000000    -0.959000000
H    -0.632000000     5.805000000    -0.125000000
H    -0.825000000     4.505000000    -0.876000000
O    -3.559000000     1.735000000    -3.715000000
H    -4.347000000     1.996000000    -3.238000000
H    -3.787000000     0.894000000    -4.112000000
O    -1.609000000    -5.885000000    -1.041000000
H    -1.354000000    -5.509000000    -1.883000000
H    -0.966000000    -5.543000000    -0.420000000
