144
-2846.55599
O    -0.794000000     4.721000000    -5.479000000
H    -0.252000000     4.278000000    -4.825000000
H    -0.419000000     4.456000000    -6.319000000
O     2.296000000     3.968000000     4.226000000
H     2.247000000     3.060000000     4.523000000
H     1.715000000     4.445000000     4.819000000
O    -0.811000000    -6.462000000    -0.229000000
H    -1.146000000    -7.189000000     0.296000000
H    -1.595000000    -6.017000000    -0.551000000
O     4.650000000     6.167000000    -2.288000000
H     4.643000000     6.319000000    -3.233000000
H     3.732000000     6.234000000    -2.028000000
O     2.722000000    -2.628000000     0.029000000
H     1.884000000    -2.630000000     0.491000000
H     3.268000000    -3.243000000     0.520000000
O    -7.821000000    -1.167000000     4.036000000
H    -8.266000000    -2.006000000     4.152000000
H    -6.941000000    -1.401000000     3.743000000
O     4.243000000     0.355000000     2.427000000
H     4.329000000    -0.102000000     1.590000000
H     4.352000000     1.280000000     2.207000000
O    -5.796000000    -3.973000000     1.709000000
H    -6.275000000    -4.048000000     0.883000000
H    -6.336000000    -4.443000000     2.343000000
O     4.664000000    -0.537000000    -0.249000000
H     5.008000000    -0.566000000    -1.142000000
H     4.079000000    -1.292000000    -0.193000000
O    -6.351000000     0.555000000     2.058000000
H    -6.002000000     0.071000000     2.806000000
H    -5.638000000     0.554000000     1.418000000
O     3.256000000    -0.568000000    -4.296000000
H     3.713000000     0.232000000    -4.038000000
H     2.354000000    -0.288000000    -4.454000000
O     5.219000000     1.019000000    -2.724000000
H     4.672000000     1.423000000    -2.050000000
H     5.952000000     1.625000000    -2.833000000
O     0.485000000    -4.055000000     0.972000000
H     0.843000000    -4.864000000     0.606000000
H    -0.441000000    -4.071000000     0.728000000
O    -2.161000000     0.459000000     7.878000000
H    -2.713000000     0.009000000     7.239000000
H    -2.499000000     1.355000000     7.899000000
O     0.126000000     4.102000000    -1.273000000
H     0.260000000     3.459000000    -1.968000000
H    -0.762000000     3.934000000    -0.958000000
O    -2.337000000     1.752000000    -2.903000000
H    -2.716000000     0.874000000    -2.932000000
H    -2.197000000     1.921000000    -1.971000000
O     1.855000000     1.398000000     5.243000000
H     2.520000000     1.134000000     5.879000000
H     1.027000000     1.113000000     5.631000000
O     2.193000000     6.046000000    -1.411000000
H     1.520000000     5.445000000    -1.091000000
H     1.930000000     6.902000000    -1.073000000
O    -1.929000000    -3.985000000    -0.432000000
H    -2.600000000    -4.662000000    -0.343000000
H    -2.154000000    -3.336000000     0.235000000
O    -3.409000000    -1.359000000     5.825000000
H    -2.912000000    -2.019000000     5.341000000
H    -4.120000000    -1.112000000     5.233000000
O    -1.097000000    -2.104000000    -6.916000000
H    -1.135000000    -1.585000000    -6.112000000
H    -0.207000000    -1.971000000    -7.244000000
O     1.619000000    -3.239000000    -2.545000000
H     2.069000000    -4.024000000    -2.231000000
H     1.712000000    -2.608000000    -1.831000000
O    -3.049000000    -5.254000000     2.713000000
H    -2.830000000    -4.462000000     3.205000000
H    -3.630000000    -4.950000000     2.016000000
O     3.985000000     3.505000000    -4.147000000
H     4.766000000     3.269000000    -4.648000000
H     3.850000000     4.433000000    -4.335000000
O    -3.083000000     2.184000000    -5.464000000
H    -3.943000000     2.467000000    -5.150000000
H    -2.464000000     2.568000000    -4.843000000
O    -4.182000000    -4.353000000    -3.266000000
H    -3.272000000    -4.065000000    -3.338000000
H    -4.654000000    -3.817000000    -3.905000000
O    -1.988000000    -3.327000000     4.246000000
H    -1.035000000    -3.415000000     4.243000000
H    -2.159000000    -2.563000000     3.696000000
O     5.665000000     2.640000000     1.392000000
H     5.505000000     2.761000000     0.456000000
H     5.785000000     3.526000000     1.732000000
O     4.637000000    -2.012000000    -6.025000000
H     3.970000000    -2.682000000    -6.174000000
H     4.274000000    -1.464000000    -5.329000000
O     0.208000000    -0.189000000     6.684000000
H     0.165000000    -1.118000000     6.456000000
H    -0.617000000    -0.015000000     7.137000000
O     4.750000000     3.495000000    -1.219000000
H     5.097000000     4.383000000    -1.295000000
H     4.099000000     3.431000000    -1.917000000
O    -4.260000000    -5.526000000    -0.699000000
H    -4.095000000    -5.314000000    -1.617000000
H    -5.200000000    -5.386000000    -0.585000000
O     3.842000000     6.583000000     0.794000000
H     3.647000000     6.227000000    -0.073000000
H     4.738000000     6.300000000     0.974000000
O     0.930000000    -3.289000000     3.670000000
H     0.829000000    -3.563000000     2.759000000
H     1.402000000    -2.457000000     3.619000000
O    -5.005000000    -1.972000000    -0.664000000
H    -4.059000000    -2.105000000    -0.605000000
H    -5.340000000    -2.264000000     0.184000000
O    -3.716000000    -0.662000000    -2.744000000
H    -4.033000000    -1.202000000    -3.468000000
H    -4.348000000    -0.809000000    -2.041000000
O     0.152000000     1.022000000    -5.391000000
H    -0.211000000     1.248000000    -6.247000000
H    -0.342000000     0.250000000    -5.117000000
O    -4.342000000     0.661000000     0.407000000
H    -3.555000000     1.077000000     0.055000000
H    -4.179000000    -0.278000000     0.312000000
O    -0.815000000    -3.651000000    -3.036000000
H     0.127000000    -3.489000000    -3.002000000
H    -1.054000000    -3.872000000    -2.136000000
O    -2.478000000     3.300000000     2.400000000
H    -2.642000000     2.609000000     3.041000000
H    -1.529000000     3.423000000     2.418000000
O    -2.297000000     3.424000000    -0.373000000
H    -2.185000000     3.201000000     0.551000000
H    -3.001000000     4.073000000    -0.379000000
O    -3.361000000     1.170000000     4.176000000
H    -3.203000000     1.034000000     5.110000000
H    -3.057000000     0.362000000     3.761000000
O     1.957000000    -2.898000000    -5.434000000
H     1.879000000    -3.840000000    -5.583000000
H     1.655000000    -2.772000000    -4.534000000
O     2.171000000    -0.938000000     3.650000000
H     2.971000000    -0.543000000     3.301000000
H     1.813000000    -0.273000000     4.238000000
O     0.351000000     3.836000000     1.724000000
H     1.227000000     3.910000000     2.104000000
H     0.460000000     4.124000000     0.817000000
O     1.273000000     3.447000000    -4.135000000
H     2.221000000     3.397000000    -4.017000000
H     1.021000000     2.568000000    -4.420000000
O    -1.321000000    -1.139000000    -4.476000000
H    -1.166000000    -2.056000000    -4.251000000
H    -2.160000000    -0.931000000    -4.066000000
O    -4.955000000    -1.874000000     3.299000000
H    -4.956000000    -2.636000000     2.719000000
H    -4.103000000    -1.464000000     3.154000000
