144
-2851.27803
O    -3.127000000     3.256000000     2.125000000
H    -3.052000000     3.005000000     1.205000000
H    -2.827000000     2.487000000     2.609000000
O     3.987000000     1.717000000     1.990000000
H     4.000000000     2.617000000     2.315000000
H     3.830000000     1.805000000     1.050000000
O     4.416000000    -3.805000000    -1.634000000
H     4.561000000    -3.054000000    -2.210000000
H     5.235000000    -4.299000000    -1.673000000
O     4.488000000    -6.411000000     0.360000000
H     5.060000000    -6.837000000    -0.279000000
H     4.137000000    -5.650000000    -0.103000000
O     0.889000000    -6.312000000     2.594000000
H     0.490000000    -5.574000000     3.054000000
H     1.824000000    -6.234000000     2.781000000
O     2.576000000    -0.177000000    -4.075000000
H     2.218000000     0.454000000    -3.450000000
H     2.949000000     0.363000000    -4.772000000
O    -0.783000000    -2.502000000    -5.076000000
H    -1.316000000    -2.670000000    -5.853000000
H    -1.047000000    -1.628000000    -4.789000000
O     4.575000000     2.750000000    -0.950000000
H     5.200000000     2.042000000    -1.107000000
H     4.334000000     3.054000000    -1.825000000
O     1.648000000    -6.457000000    -3.612000000
H     2.069000000    -7.250000000    -3.280000000
H     1.712000000    -5.832000000    -2.889000000
O    -4.385000000    -3.499000000    -3.040000000
H    -4.537000000    -2.811000000    -2.392000000
H    -4.355000000    -3.037000000    -3.878000000
O    -0.636000000    -4.949000000     0.502000000
H    -0.051000000    -5.052000000    -0.248000000
H    -0.063000000    -4.665000000     1.215000000
O    -0.574000000    -5.396000000    -4.748000000
H    -0.480000000    -4.453000000    -4.616000000
H     0.288000000    -5.755000000    -4.536000000
O     6.012000000     0.443000000    -1.310000000
H     6.152000000     0.721000000    -0.404000000
H     6.676000000    -0.230000000    -1.459000000
O    -3.614000000     5.154000000     4.157000000
H    -4.474000000     5.500000000     3.918000000
H    -3.387000000     4.563000000     3.439000000
O    -3.720000000     5.313000000    -0.443000000
H    -4.616000000     5.083000000    -0.195000000
H    -3.225000000     4.501000000    -0.332000000
O    -6.763000000    -0.334000000    -3.446000000
H    -6.919000000     0.298000000    -2.744000000
H    -7.593000000    -0.802000000    -3.536000000
O    -3.173000000    -5.769000000     0.120000000
H    -2.404000000    -5.362000000     0.519000000
H    -2.843000000    -6.164000000    -0.687000000
O     1.511000000    -2.858000000    -3.596000000
H     0.612000000    -2.656000000    -3.853000000
H     2.016000000    -2.090000000    -3.862000000
O     2.062000000     4.340000000     5.417000000
H     1.397000000     4.358000000     6.105000000
H     1.614000000     3.963000000     4.660000000
O     6.569000000     0.778000000     1.327000000
H     7.051000000     0.139000000     1.852000000
H     5.768000000     0.941000000     1.825000000
O    -3.703000000    -0.646000000     1.107000000
H    -4.033000000    -1.473000000     0.756000000
H    -3.642000000    -0.070000000     0.346000000
O     5.175000000    -1.795000000     2.748000000
H     5.941000000    -1.288000000     3.016000000
H     5.535000000    -2.526000000     2.245000000
O     6.028000000    -4.094000000     1.605000000
H     5.562000000    -4.929000000     1.654000000
H     6.077000000    -3.902000000     0.668000000
O    -2.024000000     7.608000000    -0.109000000
H    -2.498000000     6.776000000    -0.127000000
H    -2.681000000     8.252000000     0.155000000
O     1.542000000     4.586000000    -1.604000000
H     0.685000000     4.812000000    -1.967000000
H     1.491000000     4.854000000    -0.687000000
O     3.175000000     0.130000000     3.991000000
H     3.733000000    -0.648000000     3.992000000
H     3.538000000     0.685000000     3.301000000
O    -1.112000000    -1.115000000     2.485000000
H    -2.045000000    -0.930000000     2.377000000
H    -0.672000000    -0.407000000     2.014000000
O     5.086000000    -1.430000000    -3.087000000
H     4.219000000    -1.378000000    -3.490000000
H     5.174000000    -0.611000000    -2.600000000
O     0.751000000     1.502000000    -2.581000000
H     0.807000000     1.207000000    -1.672000000
H     0.187000000     2.274000000    -2.548000000
O    -1.908000000     1.482000000     3.753000000
H    -2.369000000     1.334000000     4.579000000
H    -0.990000000     1.583000000     4.006000000
O     0.777000000     1.934000000     3.812000000
H     1.509000000     1.335000000     3.957000000
H     1.146000000     2.638000000     3.279000000
O    -6.225000000     1.480000000     1.455000000
H    -5.681000000     0.768000000     1.119000000
H    -6.424000000     1.225000000     2.356000000
O    -5.906000000     2.461000000    -5.289000000
H    -6.814000000     2.759000000    -5.339000000
H    -5.619000000     2.711000000    -4.411000000
O    -3.429000000     5.707000000    -3.492000000
H    -3.432000000     6.551000000    -3.040000000
H    -4.120000000     5.786000000    -4.150000000
O    -1.381000000     0.155000000    -4.403000000
H    -2.186000000    -0.085000000    -3.944000000
H    -0.830000000     0.551000000    -3.728000000
O     2.390000000    -1.576000000     5.771000000
H     2.506000000    -2.270000000     5.123000000
H     2.729000000    -0.789000000     5.342000000
O    -1.030000000     5.174000000     2.399000000
H    -1.581000000     4.397000000     2.305000000
H    -1.644000000     5.878000000     2.608000000
O    -7.451000000     1.701000000    -1.728000000
H    -8.000000000     2.201000000    -1.124000000
H    -6.613000000     2.164000000    -1.731000000
O    -4.823000000    -2.941000000     0.262000000
H    -4.453000000    -3.719000000    -0.155000000
H    -5.656000000    -3.238000000     0.628000000
O     0.519000000    -3.487000000     2.668000000
H     0.005000000    -2.693000000     2.519000000
H     1.378000000    -3.168000000     2.943000000
O     1.494000000     4.143000000     2.238000000
H     2.242000000     4.654000000     1.928000000
H     0.751000000     4.742000000     2.173000000
O    -3.842000000    -0.368000000    -3.147000000
H    -4.783000000    -0.399000000    -3.321000000
H    -3.743000000     0.319000000    -2.489000000
O    -5.155000000     3.146000000    -2.206000000
H    -4.440000000     3.743000000    -2.425000000
H    -4.780000000     2.551000000    -1.557000000
O     1.761000000    -4.441000000    -1.226000000
H     2.675000000    -4.301000000    -1.474000000
H     1.259000000    -3.932000000    -1.862000000
O     2.992000000    -3.398000000     3.549000000
H     3.368000000    -4.227000000     3.253000000
H     3.653000000    -2.743000000     3.326000000
O    -1.068000000     4.023000000    -2.530000000
H    -1.612000000     3.992000000    -1.743000000
H    -1.645000000     4.374000000    -3.207000000
O     0.827000000     6.404000000     0.158000000
H     0.028000000     6.917000000     0.278000000
H     1.473000000     6.834000000     0.718000000
O    -6.143000000     4.348000000     0.738000000
H    -5.924000000     3.430000000     0.899000000
H    -7.053000000     4.329000000     0.442000000
