144
-2796.63982
O    -4.749000000    -0.799000000     3.181000000
H    -3.871000000    -1.152000000     3.030000000
H    -4.626000000    -0.133000000     3.858000000
O     0.439000000     4.640000000    -3.029000000
H     0.375000000     3.718000000    -2.778000000
H    -0.194000000     4.739000000    -3.740000000
O    -3.149000000    -2.639000000     0.014000000
H    -3.067000000    -2.329000000     0.916000000
H    -3.551000000    -1.908000000    -0.455000000
O     1.353000000     3.991000000     3.150000000
H     0.735000000     3.331000000     3.466000000
H     0.962000000     4.827000000     3.406000000
O    -8.287000000    -0.419000000    -2.579000000
H    -7.680000000    -0.020000000    -1.956000000
H    -7.811000000    -1.172000000    -2.929000000
O     2.509000000    -5.191000000     0.701000000
H     2.207000000    -5.586000000     1.519000000
H     3.130000000    -4.516000000     0.976000000
O    -7.455000000     3.917000000     0.511000000
H    -8.353000000     4.164000000     0.731000000
H    -7.318000000     3.084000000     0.962000000
O    -6.421000000    -2.246000000     1.683000000
H    -6.916000000    -2.861000000     2.225000000
H    -5.815000000    -1.825000000     2.293000000
O     6.191000000     2.408000000     2.515000000
H     6.163000000     1.461000000     2.382000000
H     6.912000000     2.543000000     3.131000000
O    -1.051000000    -4.565000000     0.508000000
H    -0.234000000    -4.559000000     0.009000000
H    -1.529000000    -3.796000000     0.194000000
O     4.107000000     0.981000000     4.040000000
H     4.507000000     1.782000000     3.702000000
H     4.420000000     0.292000000     3.455000000
O    -0.357000000    -4.144000000    -3.839000000
H     0.257000000    -3.878000000    -4.523000000
H     0.108000000    -3.973000000    -3.020000000
O    -4.940000000     0.571000000    -4.294000000
H    -5.514000000    -0.183000000    -4.159000000
H    -5.187000000     1.187000000    -3.604000000
O    -3.406000000     2.940000000    -2.194000000
H    -3.565000000     2.938000000    -1.250000000
H    -3.095000000     2.055000000    -2.387000000
O    -1.891000000     4.014000000    -4.410000000
H    -1.890000000     3.444000000    -5.179000000
H    -2.481000000     3.583000000    -3.792000000
O     1.475000000    -4.309000000    -1.603000000
H     1.862000000    -4.972000000    -2.175000000
H     1.736000000    -4.572000000    -0.721000000
O     5.708000000    -3.306000000    -0.287000000
H     6.390000000    -3.872000000     0.076000000
H     5.116000000    -3.143000000     0.448000000
O    -3.631000000    -1.608000000    -3.003000000
H    -3.117000000    -1.027000000    -3.564000000
H    -3.612000000    -1.188000000    -2.143000000
O     5.501000000    -5.033000000    -2.452000000
H     5.564000000    -4.258000000    -1.894000000
H     6.358000000    -5.454000000    -2.377000000
O     4.194000000    -3.369000000     1.983000000
H     4.868000000    -3.580000000     2.629000000
H     3.407000000    -3.205000000     2.504000000
O    -5.857000000     1.205000000     1.369000000
H    -5.160000000     1.714000000     0.955000000
H    -5.414000000     0.432000000     1.719000000
O     0.884000000    -2.974000000    -5.888000000
H     0.251000000    -2.452000000    -6.381000000
H     1.526000000    -2.337000000    -5.573000000
O     3.062000000    -6.604000000    -1.536000000
H     3.931000000    -6.333000000    -1.833000000
H     2.836000000    -5.974000000    -0.852000000
O     1.631000000     0.687000000     5.119000000
H     2.494000000     0.641000000     4.708000000
H     1.066000000     0.164000000     4.549000000
O    -5.655000000    -3.949000000    -0.517000000
H    -4.723000000    -3.772000000    -0.389000000
H    -6.083000000    -3.532000000     0.231000000
O    -4.028000000     0.722000000     5.168000000
H    -4.788000000     1.151000000     5.562000000
H    -3.513000000     1.439000000     4.798000000
O    -2.998000000     3.046000000     4.164000000
H    -2.614000000     3.735000000     4.706000000
H    -3.191000000     3.476000000     3.331000000
O     3.410000000     3.514000000     0.835000000
H     2.581000000     3.048000000     0.946000000
H     4.081000000     2.853000000     1.007000000
O    -6.126000000     4.439000000     3.682000000
H    -5.598000000     3.762000000     3.259000000
H    -7.030000000     4.148000000     3.560000000
O     6.479000000    -0.380000000     2.140000000
H     6.668000000    -1.305000000     2.300000000
H     7.306000000    -0.017000000     1.824000000
O    -6.135000000     1.047000000    -1.669000000
H    -5.344000000     0.542000000    -1.482000000
H    -6.467000000     1.301000000    -0.807000000
O    -3.168000000    -4.167000000    -3.396000000
H    -3.313000000    -3.246000000    -3.179000000
H    -2.220000000    -4.282000000    -3.330000000
O     2.537000000     5.896000000    -0.085000000
H     2.967000000     5.046000000     0.006000000
H     1.602000000     5.693000000    -0.085000000
O     2.067000000    -3.482000000     3.723000000
H     2.797000000    -3.595000000     4.333000000
H     1.772000000    -4.373000000     3.536000000
O    -7.771000000     2.544000000    -3.451000000
H    -7.041000000     3.154000000    -3.557000000
H    -7.533000000     2.016000000    -2.689000000
O     0.232000000     1.748000000    -2.926000000
H    -0.590000000     1.622000000    -3.401000000
H     0.212000000     1.088000000    -2.234000000
O     2.572000000    -0.984000000    -4.889000000
H     2.826000000    -0.432000000    -4.150000000
H     3.368000000    -1.060000000    -5.416000000
O     6.172000000    -1.337000000    -2.140000000
H     5.584000000    -0.594000000    -2.006000000
H     5.829000000    -2.020000000    -1.564000000
O    -2.558000000    -1.877000000     2.656000000
H    -2.900000000    -2.386000000     3.391000000
H    -1.667000000    -1.647000000     2.918000000
O    -2.338000000     1.165000000    -4.108000000
H    -3.156000000     0.691000000    -4.252000000
H    -1.905000000     1.161000000    -4.962000000
O    -3.802000000     4.588000000     1.779000000
H    -4.666000000     4.886000000     1.493000000
H    -3.305000000     4.483000000     0.968000000
O     3.046000000     1.309000000    -3.115000000
H     3.273000000     2.239000000    -3.095000000
H     2.135000000     1.279000000    -2.820000000
O     0.084000000    -1.481000000     4.370000000
H     0.666000000    -2.150000000     4.009000000
H    -0.264000000    -1.873000000     5.171000000
O    -5.530000000     4.113000000    -3.627000000
H    -4.743000000     3.662000000    -3.322000000
H    -5.772000000     4.690000000    -2.902000000
O    -0.257000000     5.483000000     0.434000000
H    -0.989000000     5.437000000    -0.181000000
H    -0.131000000     4.580000000     0.724000000
O    -7.857000000    -0.447000000     0.522000000
H    -7.474000000    -1.289000000     0.767000000
H    -7.346000000     0.199000000     1.009000000
O    -2.462000000     5.161000000    -0.957000000
H    -2.576000000     4.511000000    -1.650000000
H    -2.828000000     5.967000000    -1.323000000
O     3.814000000     3.855000000     4.116000000
H     4.146000000     4.627000000     3.659000000
H     2.918000000     3.753000000     3.794000000
