144
-2811.52158
O    -0.509000000    -2.826000000     3.408000000
H    -1.130000000    -2.974000000     4.121000000
H    -0.687000000    -1.931000000     3.118000000
O    -5.607000000     5.698000000    -1.370000000
H    -4.938000000     5.050000000    -1.147000000
H    -5.195000000     6.541000000    -1.184000000
O    -7.611000000    -1.110000000    -3.496000000
H    -7.022000000    -1.466000000    -2.832000000
H    -7.166000000    -0.325000000    -3.815000000
O     0.174000000     4.257000000    -4.599000000
H     0.101000000     5.211000000    -4.631000000
H     0.149000000     3.984000000    -5.516000000
O     3.029000000     1.469000000     5.740000000
H     2.247000000     1.618000000     5.208000000
H     3.009000000     2.167000000     6.395000000
O    -1.093000000    -1.643000000    -4.614000000
H    -0.266000000    -1.166000000    -4.683000000
H    -1.483000000    -1.572000000    -5.485000000
O     5.636000000     1.843000000     4.896000000
H     5.923000000     0.954000000     4.685000000
H     4.701000000     1.756000000     5.079000000
O    -4.213000000    -1.455000000     2.881000000
H    -5.096000000    -1.347000000     3.234000000
H    -3.986000000    -0.590000000     2.538000000
O    -1.358000000     2.668000000     1.614000000
H    -2.060000000     2.359000000     2.188000000
H    -0.964000000     1.868000000     1.267000000
O     1.440000000    -2.654000000    -2.063000000
H     0.886000000    -3.140000000    -1.452000000
H     1.104000000    -2.888000000    -2.929000000
O    -5.780000000    -3.003000000     0.942000000
H    -5.638000000    -3.950000000     0.966000000
H    -4.936000000    -2.628000000     1.191000000
O     3.155000000    -1.231000000     6.783000000
H     3.155000000    -0.717000000     5.975000000
H     3.335000000    -0.592000000     7.473000000
O    -1.749000000    -5.303000000     2.642000000
H    -2.390000000    -4.883000000     3.215000000
H    -0.934000000    -4.829000000     2.806000000
O    -5.631000000    -3.710000000    -3.958000000
H    -5.514000000    -2.760000000    -3.937000000
H    -4.801000000    -4.061000000    -3.636000000
O    -2.892000000    -3.395000000    -3.422000000
H    -2.309000000    -2.826000000    -3.925000000
H    -3.004000000    -2.943000000    -2.585000000
O     1.698000000     5.438000000    -1.688000000
H     2.308000000     6.159000000    -1.536000000
H     2.251000000     4.713000000    -1.980000000
O    -2.189000000    -5.950000000    -2.411000000
H    -2.150000000    -5.442000000    -1.600000000
H    -2.588000000    -5.356000000    -3.046000000
O    -3.921000000     4.137000000    -4.143000000
H    -3.969000000     3.744000000    -5.014000000
H    -3.793000000     3.395000000    -3.552000000
O    -4.034000000     1.068000000     1.472000000
H    -3.444000000     0.751000000     0.789000000
H    -4.830000000     1.321000000     1.004000000
O    -3.759000000     1.661000000    -3.271000000
H    -3.655000000     0.943000000    -2.646000000
H    -3.067000000     1.519000000    -3.917000000
O    -3.650000000    -3.825000000     3.994000000
H    -3.209000000    -3.549000000     4.797000000
H    -3.838000000    -3.008000000     3.531000000
O    -6.757000000     1.168000000    -0.268000000
H    -6.554000000     1.568000000    -1.113000000
H    -6.666000000     0.227000000    -0.421000000
O    -4.011000000     4.021000000     0.229000000
H    -3.059000000     3.950000000     0.292000000
H    -4.299000000     4.179000000     1.128000000
O     3.748000000    -3.064000000    -0.087000000
H     3.214000000    -3.724000000     0.356000000
H     3.276000000    -2.881000000    -0.899000000
O     2.304000000    -5.431000000    -2.588000000
H     1.648000000    -5.436000000    -1.891000000
H     1.874000000    -4.983000000    -3.317000000
O     3.127000000     3.113000000    -2.203000000
H     3.137000000     2.160000000    -2.292000000
H     3.874000000     3.309000000    -1.639000000
O    -4.778000000    -0.654000000    -4.491000000
H    -4.779000000     0.123000000    -3.932000000
H    -3.960000000    -0.594000000    -4.984000000
O     5.084000000     2.539000000     2.197000000
H     5.400000000     2.131000000     3.003000000
H     5.391000000     1.960000000     1.499000000
O     4.876000000    -2.876000000     2.624000000
H     4.392000000    -2.654000000     1.829000000
H     4.208000000    -2.916000000     3.308000000
O     0.566000000     2.048000000     4.184000000
H    -0.097000000     2.699000000     3.953000000
H     0.672000000     1.522000000     3.392000000
O    -0.834000000     4.710000000    -1.959000000
H     0.094000000     4.862000000    -1.781000000
H    -0.840000000     4.028000000    -2.631000000
O    -6.605000000     1.974000000    -2.989000000
H    -5.690000000     2.251000000    -3.032000000
H    -7.090000000     2.776000000    -2.792000000
O     2.628000000    -3.390000000     3.897000000
H     1.704000000    -3.192000000     4.052000000
H     2.895000000    -3.901000000     4.660000000
O     1.541000000     5.570000000     3.834000000
H     1.701000000     5.426000000     2.902000000
H     0.764000000     5.047000000     4.028000000
O     6.466000000    -0.600000000     3.903000000
H     6.464000000    -1.227000000     3.179000000
H     7.016000000    -1.010000000     4.571000000
O     7.372000000    -0.208000000     0.219000000
H     7.911000000    -0.820000000     0.721000000
H     6.891000000    -0.762000000    -0.396000000
O    -6.173000000    -1.442000000    -1.245000000
H    -5.249000000    -1.221000000    -1.130000000
H    -6.278000000    -2.277000000    -0.788000000
O     2.347000000    -5.043000000     1.456000000
H     2.259000000    -5.864000000     1.940000000
H     2.659000000    -4.413000000     2.106000000
O     4.807000000     5.011000000     1.707000000
H     3.910000000     4.952000000     2.035000000
H     5.160000000     4.127000000     1.813000000
O     0.516000000    -4.923000000    -0.630000000
H     1.143000000    -5.173000000     0.048000000
H    -0.339000000    -5.010000000    -0.209000000
O     5.594000000     1.953000000    -1.752000000
H     6.542000000     2.002000000    -1.627000000
H     5.351000000     1.095000000    -1.404000000
O     3.969000000     4.471000000     5.152000000
H     4.225000000     4.045000000     4.334000000
H     3.209000000     5.004000000     4.918000000
O    -1.413000000     5.192000000     0.793000000
H    -1.059000000     5.260000000    -0.094000000
H    -1.152000000     4.320000000     1.089000000
O     1.721000000     5.125000000     1.222000000
H     0.903000000     5.622000000     1.216000000
H     1.858000000     4.878000000     0.307000000
O     6.843000000    -1.738000000    -2.091000000
H     6.092000000    -2.332000000    -2.116000000
H     7.360000000    -1.974000000    -2.861000000
O    -2.523000000    -4.327000000    -0.066000000
H    -2.543000000    -3.472000000    -0.496000000
H    -2.992000000    -4.192000000     0.757000000
O     3.249000000     0.282000000    -2.108000000
H     3.782000000    -0.329000000    -2.616000000
H     2.379000000    -0.115000000    -2.090000000
O     3.047000000     2.946000000    -5.062000000
H     2.373000000     3.625000000    -5.048000000
H     3.434000000     2.974000000    -4.187000000
