144
-2831.57660
O    -5.439000000     0.393000000    -4.226000000
H    -6.013000000    -0.365000000    -4.332000000
H    -4.974000000     0.229000000    -3.406000000
O     4.882000000     0.333000000     1.543000000
H     4.627000000     1.060000000     2.111000000
H     4.953000000    -0.418000000     2.133000000
O    -0.938000000     2.495000000    -4.199000000
H    -0.072000000     2.781000000    -4.492000000
H    -1.046000000     1.625000000    -4.585000000
O    -1.054000000    -6.699000000    -2.657000000
H    -1.470000000    -6.075000000    -3.252000000
H    -0.144000000    -6.407000000    -2.601000000
O    -1.416000000     2.913000000     3.950000000
H    -2.031000000     2.214000000     4.175000000
H    -1.679000000     3.191000000     3.073000000
O    -1.711000000     5.655000000     4.781000000
H    -1.682000000     4.704000000     4.676000000
H    -2.497000000     5.925000000     4.306000000
O    -2.422000000     3.506000000     1.504000000
H    -1.908000000     3.975000000     0.847000000
H    -2.589000000     2.649000000     1.110000000
O     5.292000000    -1.864000000     3.448000000
H     4.643000000    -1.473000000     4.034000000
H     6.119000000    -1.451000000     3.697000000
O     1.502000000     6.017000000     1.639000000
H     0.937000000     5.391000000     1.185000000
H     2.072000000     5.474000000     2.183000000
O     2.238000000    -0.040000000    -1.810000000
H     1.841000000    -0.550000000    -2.516000000
H     1.526000000     0.103000000    -1.187000000
O    -2.302000000    -1.245000000     2.246000000
H    -2.727000000    -1.920000000     1.717000000
H    -1.692000000    -1.728000000     2.804000000
O    -3.410000000     0.712000000     4.079000000
H    -3.541000000     0.256000000     4.910000000
H    -3.084000000     0.036000000     3.484000000
O    -2.208000000    -4.668000000    -3.892000000
H    -1.734000000    -4.133000000    -4.529000000
H    -2.351000000    -4.084000000    -3.148000000
O    -3.130000000    -3.117000000     0.525000000
H    -3.631000000    -3.915000000     0.353000000
H    -2.611000000    -2.984000000    -0.268000000
O     1.493000000    -0.908000000     4.765000000
H     1.514000000    -1.864000000     4.722000000
H     0.587000000    -0.698000000     4.993000000
O    -5.903000000    -1.009000000    -0.735000000
H    -5.044000000    -0.797000000    -1.101000000
H    -6.400000000    -1.354000000    -1.476000000
O    -0.971000000    -3.905000000    -6.283000000
H    -0.462000000    -3.527000000    -7.000000000
H    -1.844000000    -3.525000000    -6.382000000
O    -3.488000000    -2.537000000    -6.760000000
H    -3.881000000    -3.373000000    -6.506000000
H    -4.205000000    -1.906000000    -6.694000000
O    -2.843000000     3.676000000    -2.375000000
H    -2.129000000     3.429000000    -2.961000000
H    -2.406000000     3.988000000    -1.582000000
O     3.698000000     4.609000000     3.292000000
H     4.080000000     4.760000000     4.157000000
H     2.824000000     4.264000000     3.474000000
O    -1.761000000    -0.096000000    -5.422000000
H    -1.962000000    -0.657000000    -4.673000000
H    -2.617000000     0.185000000    -5.746000000
O    -0.984000000    -2.289000000     4.408000000
H    -1.529000000    -2.664000000     5.100000000
H    -0.386000000    -2.995000000     4.164000000
O    -1.011000000     4.646000000    -0.359000000
H    -1.095000000     5.549000000    -0.055000000
H    -0.339000000     4.684000000    -1.041000000
O     1.080000000    -5.183000000     1.544000000
H     0.217000000    -4.974000000     1.900000000
H     0.983000000    -6.062000000     1.179000000
O     3.305000000    -5.562000000    -0.059000000
H     2.379000000    -5.335000000     0.025000000
H     3.758000000    -4.928000000     0.497000000
O    -3.651000000     0.731000000    -2.030000000
H    -3.223000000     1.541000000    -2.308000000
H    -3.025000000     0.041000000    -2.249000000
O     1.663000000     3.065000000    -4.779000000
H     2.232000000     3.305000000    -4.047000000
H     1.896000000     2.158000000    -4.976000000
O     4.203000000    -0.530000000     5.560000000
H     4.390000000    -1.206000000     6.210000000
H     3.253000000    -0.563000000     5.447000000
O     0.564000000    -4.249000000    -1.953000000
H    -0.320000000    -3.884000000    -1.912000000
H     1.140000000    -3.485000000    -1.930000000
O    -4.503000000    -2.432000000    -3.310000000
H    -3.670000000    -1.966000000    -3.375000000
H    -4.270000000    -3.355000000    -3.405000000
O     1.863000000    -5.883000000    -3.636000000
H     2.273000000    -5.304000000    -4.279000000
H     1.444000000    -5.289000000    -3.013000000
O    -1.831000000    -6.988000000     1.159000000
H    -0.934000000    -7.136000000     0.858000000
H    -1.787000000    -6.169000000     1.652000000
O    -5.905000000     2.325000000    -0.721000000
H    -6.216000000     2.009000000    -1.569000000
H    -5.162000000     1.758000000    -0.513000000
O     0.599000000     0.307000000    -7.239000000
H    -0.181000000    -0.218000000    -7.059000000
H     0.341000000     0.878000000    -7.962000000
O     4.743000000     1.536000000     4.102000000
H     5.330000000     2.017000000     4.685000000
H     4.564000000     0.717000000     4.565000000
O     1.454000000    -3.806000000     3.834000000
H     1.329000000    -3.847000000     2.885000000
H     2.272000000    -4.279000000     3.988000000
O    -1.441000000    -4.608000000     2.438000000
H    -2.037000000    -4.144000000     1.851000000
H    -1.896000000    -4.619000000     3.280000000
O    -3.714000000    -5.590000000    -0.508000000
H    -3.413000000    -5.678000000    -1.412000000
H    -3.046000000    -6.039000000     0.012000000
O     4.964000000     0.190000000    -1.249000000
H     4.872000000     0.358000000    -0.311000000
H     4.066000000     0.170000000    -1.578000000
O    -3.768000000     2.021000000    -5.956000000
H    -4.203000000     1.474000000    -5.302000000
H    -3.310000000     2.688000000    -5.444000000
O     4.953000000     3.770000000    -0.848000000
H     5.671000000     3.229000000    -1.176000000
H     5.017000000     3.704000000     0.104000000
O     0.895000000    -1.467000000    -3.914000000
H     0.097000000    -1.138000000    -4.329000000
H     1.371000000    -1.901000000    -4.622000000
O     5.348000000     3.314000000     1.673000000
H     4.741000000     3.823000000     2.211000000
H     5.883000000     2.834000000     2.306000000
O     2.952000000     3.053000000    -2.546000000
H     3.665000000     3.340000000    -1.976000000
H     2.583000000     2.290000000    -2.102000000
O     0.444000000     3.144000000     6.509000000
H     0.056000000     2.455000000     5.970000000
H    -0.035000000     3.097000000     7.337000000
O    -3.150000000     1.077000000     0.745000000
H    -2.698000000     0.309000000     1.093000000
H    -3.130000000     0.957000000    -0.205000000
O     1.125000000     5.704000000    -1.367000000
H     1.808000000     5.037000000    -1.292000000
H     1.604000000     6.531000000    -1.424000000
O     1.185000000     4.703000000     4.187000000
H     1.360000000     4.938000000     5.098000000
H     0.382000000     4.184000000     4.224000000
