144
-2798.50722
O     2.815000000    -0.106000000    -4.220000000
H     3.012000000    -0.072000000    -5.156000000
H     1.986000000    -0.581000000    -4.166000000
O    -0.147000000     4.417000000    -3.882000000
H    -0.976000000     3.938000000    -3.877000000
H     0.522000000     3.738000000    -3.967000000
O    -2.840000000     2.025000000     3.258000000
H    -3.298000000     1.209000000     3.060000000
H    -2.696000000     2.432000000     2.403000000
O     1.272000000    -6.734000000     4.506000000
H     1.274000000    -7.568000000     4.037000000
H     1.076000000    -6.081000000     3.834000000
O    -3.879000000    -5.768000000    -0.952000000
H    -3.000000000    -5.827000000    -1.326000000
H    -3.738000000    -5.480000000    -0.051000000
O     0.483000000     3.554000000     8.371000000
H     0.104000000     3.107000000     7.614000000
H     0.595000000     2.864000000     9.025000000
O    -1.831000000     3.388000000     5.300000000
H    -0.988000000     3.391000000     4.847000000
H    -2.441000000     3.004000000     4.670000000
O    -3.535000000    -4.440000000     1.490000000
H    -3.917000000    -4.906000000     2.234000000
H    -2.886000000    -3.855000000     1.882000000
O    -5.112000000     3.618000000    -4.011000000
H    -5.808000000     3.655000000    -3.355000000
H    -5.459000000     4.109000000    -4.756000000
O     0.368000000     4.832000000     1.948000000
H     0.784000000     4.252000000     2.586000000
H    -0.231000000     5.369000000     2.467000000
O    -0.736000000    -5.771000000     2.293000000
H    -1.235000000    -4.962000000     2.408000000
H     0.143000000    -5.478000000     2.053000000
O     2.051000000    -5.322000000     1.657000000
H     2.989000000    -5.516000000     1.640000000
H     1.992000000    -4.458000000     2.064000000
O     3.075000000     3.483000000     6.345000000
H     3.573000000     2.666000000     6.341000000
H     2.703000000     3.533000000     7.226000000
O     1.420000000     0.762000000     6.488000000
H     1.196000000     0.698000000     5.559000000
H     2.377000000     0.775000000     6.503000000
O    -3.994000000     3.054000000    -7.469000000
H    -3.456000000     2.681000000    -6.771000000
H    -4.600000000     2.351000000    -7.705000000
O     4.523000000     1.106000000     6.655000000
H     4.854000000     0.957000000     7.541000000
H     4.869000000     0.374000000     6.145000000
O    -3.097000000     4.975000000    -1.495000000
H    -2.645000000     4.512000000    -2.201000000
H    -2.483000000     5.658000000    -1.225000000
O    -2.544000000     3.220000000    -3.448000000
H    -2.571000000     2.720000000    -4.264000000
H    -3.462000000     3.401000000    -3.248000000
O    -2.655000000     2.993000000     0.922000000
H    -3.032000000     3.826000000     0.639000000
H    -1.738000000     3.042000000     0.652000000
O     2.672000000     5.686000000     0.540000000
H     2.749000000     5.033000000    -0.156000000
H     1.971000000     5.355000000     1.102000000
O    -1.447000000    -3.075000000    -5.053000000
H    -1.383000000    -3.725000000    -4.353000000
H    -1.643000000    -3.588000000    -5.837000000
O     0.796000000     0.859000000    -6.334000000
H     1.523000000     0.270000000    -6.535000000
H     0.286000000     0.896000000    -7.143000000
O    -1.346000000    -5.984000000    -1.679000000
H    -0.470000000    -5.692000000    -1.426000000
H    -1.203000000    -6.530000000    -2.452000000
O    -3.695000000    -1.468000000     4.134000000
H    -3.771000000    -2.287000000     4.624000000
H    -3.100000000    -0.931000000     4.658000000
O    -1.699000000     2.101000000    -5.826000000
H    -1.121000000     2.187000000    -6.584000000
H    -1.117000000     1.861000000    -5.105000000
O    -4.611000000    -0.701000000    -2.549000000
H    -4.992000000    -1.357000000    -1.964000000
H    -4.232000000    -0.047000000    -1.961000000
O    -2.001000000    -2.026000000     8.342000000
H    -2.745000000    -2.482000000     7.949000000
H    -1.350000000    -1.980000000     7.642000000
O     3.663000000     3.685000000    -1.349000000
H     4.218000000     4.075000000    -2.026000000
H     3.453000000     2.814000000    -1.685000000
O    -3.217000000     0.946000000     6.430000000
H    -3.179000000     0.994000000     7.385000000
H    -2.697000000     1.692000000     6.132000000
O     3.210000000    -2.902000000     6.305000000
H     4.130000000    -2.915000000     6.569000000
H     2.871000000    -3.755000000     6.574000000
O    -3.893000000     0.929000000    -0.557000000
H    -3.449000000     1.776000000    -0.517000000
H    -3.897000000     0.618000000     0.349000000
O     2.564000000    -3.356000000    -2.036000000
H     2.881000000    -3.000000000    -1.207000000
H     1.684000000    -2.992000000    -2.132000000
O     2.275000000    -1.531000000     8.690000000
H     3.196000000    -1.746000000     8.840000000
H     2.039000000    -2.024000000     7.904000000
O    -4.341000000    -0.070000000     1.881000000
H    -3.990000000    -0.655000000     2.552000000
H    -5.277000000    -0.270000000     1.855000000
O     1.078000000     3.204000000     4.128000000
H     0.940000000     2.258000000     4.081000000
H     1.824000000     3.309000000     4.719000000
O     1.108000000    -5.527000000    -0.830000000
H     1.286000000    -5.674000000     0.099000000
H     1.776000000    -6.040000000    -1.285000000
O     4.939000000    -3.520000000     3.244000000
H     4.072000000    -3.585000000     3.645000000
H     5.357000000    -4.358000000     3.441000000
O    -1.745000000    -3.262000000     3.175000000
H    -2.499000000    -2.725000000     3.418000000
H    -0.986000000    -2.715000000     3.376000000
O     1.933000000    -3.464000000     3.562000000
H     1.301000000    -2.754000000     3.451000000
H     2.096000000    -3.494000000     4.505000000
O     3.558000000     0.237000000     0.691000000
H     3.489000000     0.509000000     1.606000000
H     2.748000000     0.545000000     0.286000000
O     4.119000000     1.143000000    -2.107000000
H     4.164000000     0.607000000    -1.315000000
H     3.712000000     0.573000000    -2.760000000
O     3.013000000    -5.617000000    -3.561000000
H     2.869000000    -4.712000000    -3.284000000
H     3.672000000    -5.952000000    -2.953000000
O    -0.177000000    -1.594000000     6.477000000
H     0.266000000    -0.748000000     6.413000000
H    -0.213000000    -1.914000000     5.575000000
O     3.765000000     0.305000000     3.494000000
H     2.854000000     0.223000000     3.774000000
H     4.228000000    -0.378000000     3.980000000
O    -1.052000000     6.530000000    -0.372000000
H    -0.235000000     6.050000000    -0.502000000
H    -1.048000000     6.764000000     0.556000000
O     1.834000000     2.615000000    -4.036000000
H     2.741000000     2.711000000    -4.327000000
H     1.458000000     1.967000000    -4.632000000
O     3.317000000    -2.369000000     0.557000000
H     3.661000000    -2.816000000     1.330000000
H     3.371000000    -1.438000000     0.775000000
O    -3.765000000    -1.309000000    -5.065000000
H    -3.951000000    -1.100000000    -4.150000000
H    -2.909000000    -1.737000000    -5.044000000
