144
-2803.40741
O    -0.698000000    -0.834000000    -7.580000000
H    -0.652000000    -1.594000000    -8.161000000
H    -0.085000000    -1.037000000    -6.874000000
O    -5.265000000    -4.023000000    -2.195000000
H    -4.337000000    -4.180000000    -2.371000000
H    -5.523000000    -3.364000000    -2.840000000
O    -0.453000000    -2.991000000    -5.002000000
H    -0.273000000    -3.086000000    -4.066000000
H    -1.408000000    -2.974000000    -5.061000000
O    -1.156000000     5.525000000     2.247000000
H    -1.663000000     6.332000000     2.340000000
H    -1.678000000     4.980000000     1.659000000
O    -4.925000000     0.348000000     4.677000000
H    -5.639000000    -0.268000000     4.511000000
H    -4.130000000    -0.147000000     4.478000000
O    -2.760000000    -1.256000000     3.613000000
H    -3.179000000    -1.734000000     2.896000000
H    -2.113000000    -1.868000000     3.963000000
O    -3.617000000    -2.418000000     1.308000000
H    -4.113000000    -1.788000000     0.786000000
H    -2.870000000    -2.651000000     0.757000000
O     0.388000000     1.314000000     6.549000000
H     1.239000000     1.483000000     6.143000000
H    -0.195000000     1.128000000     5.814000000
O    -0.180000000    -6.204000000    -2.127000000
H    -0.077000000    -5.570000000    -1.417000000
H    -0.726000000    -6.896000000    -1.753000000
O     3.470000000     3.250000000     3.095000000
H     4.017000000     3.610000000     3.792000000
H     3.008000000     4.008000000     2.737000000
O    -2.662000000     1.962000000    -0.644000000
H    -1.773000000     1.840000000    -0.977000000
H    -2.922000000     1.095000000    -0.331000000
O     4.014000000     0.601000000    -3.579000000
H     3.534000000     0.181000000    -4.292000000
H     3.715000000     0.148000000    -2.790000000
O     3.712000000    -2.294000000    -4.448000000
H     4.338000000    -3.015000000    -4.509000000
H     2.959000000    -2.669000000    -3.991000000
O     2.191000000     6.786000000     4.548000000
H     2.217000000     6.460000000     3.648000000
H     1.691000000     6.125000000     5.027000000
O    -0.138000000    -6.469000000     2.979000000
H    -0.351000000    -5.836000000     3.665000000
H    -0.776000000    -7.173000000     3.097000000
O     2.418000000    -6.768000000    -2.746000000
H     1.662000000    -7.344000000    -2.857000000
H     2.073000000    -5.888000000    -2.895000000
O     3.370000000    -1.041000000     1.778000000
H     2.834000000    -0.758000000     2.519000000
H     3.875000000    -0.264000000     1.536000000
O     1.308000000    -3.444000000    -6.912000000
H     0.451000000    -3.233000000    -6.541000000
H     1.554000000    -4.268000000    -6.492000000
O    -2.537000000    -5.858000000     0.645000000
H    -2.454000000    -6.681000000     0.165000000
H    -2.161000000    -5.200000000     0.060000000
O     2.685000000     1.432000000     5.156000000
H     2.474000000     0.670000000     4.617000000
H     2.937000000     2.108000000     4.527000000
O    -6.593000000    -4.079000000     0.367000000
H    -6.457000000    -3.755000000    -0.523000000
H    -5.719000000    -4.083000000     0.757000000
O     2.561000000     3.753000000    -2.069000000
H     3.200000000     3.108000000    -1.766000000
H     1.845000000     3.230000000    -2.430000000
O     1.877000000    -3.808000000    -2.924000000
H     2.377000000    -4.040000000    -2.142000000
H     1.028000000    -3.520000000    -2.589000000
O    -1.517000000     1.117000000     4.703000000
H    -1.871000000     1.940000000     4.364000000
H    -2.043000000     0.438000000     4.280000000
O    -3.148000000    -2.530000000    -5.058000000
H    -3.609000000    -2.210000000    -5.833000000
H    -3.298000000    -1.857000000    -4.395000000
O    -3.429000000    -4.781000000     2.746000000
H    -3.245000000    -3.877000000     2.491000000
H    -3.196000000    -5.300000000     1.976000000
O    -0.185000000     3.278000000    -2.909000000
H    -0.158000000     4.034000000    -3.495000000
H    -0.612000000     3.603000000    -2.117000000
O     1.736000000    -0.797000000     4.017000000
H     1.859000000    -1.102000000     4.916000000
H     0.898000000    -1.173000000     3.749000000
O    -3.828000000    -6.517000000    -4.306000000
H    -3.271000000    -7.294000000    -4.346000000
H    -3.320000000    -5.883000000    -3.800000000
O     3.005000000     6.028000000    -3.611000000
H     2.925000000     5.279000000    -4.203000000
H     2.885000000     5.656000000    -2.737000000
O    -0.976000000     1.241000000    -4.946000000
H    -0.669000000     1.902000000    -4.326000000
H    -1.028000000     1.703000000    -5.783000000
O     3.300000000    -1.034000000    -1.252000000
H     3.503000000    -1.550000000    -0.472000000
H     2.353000000    -1.126000000    -1.360000000
O     0.496000000    -4.959000000     0.613000000
H     0.202000000    -5.618000000     1.241000000
H    -0.210000000    -4.313000000     0.595000000
O     4.641000000     1.279000000     1.430000000
H     4.037000000     1.914000000     1.816000000
H     5.137000000     0.938000000     2.173000000
O    -2.698000000    -4.530000000    -2.971000000
H    -1.995000000    -4.139000000    -2.452000000
H    -2.290000000    -4.731000000    -3.813000000
O     4.711000000     2.151000000    -1.192000000
H     5.055000000     1.483000000    -1.785000000
H     4.808000000     1.771000000    -0.319000000
O     1.932000000     5.357000000     1.974000000
H     1.080000000     5.489000000     1.559000000
H     2.556000000     5.772000000     1.379000000
O     1.796000000    -0.025000000    -5.298000000
H     0.882000000     0.244000000    -5.201000000
H     1.758000000    -0.978000000    -5.376000000
O    -0.510000000    -2.698000000     4.163000000
H     0.247000000    -3.276000000     4.258000000
H    -1.095000000    -2.949000000     4.877000000
O     0.094000000    -6.262000000    -4.914000000
H    -0.009000000    -6.363000000    -3.968000000
H     0.841000000    -5.671000000    -5.012000000
O    -3.353000000     0.350000000    -6.196000000
H    -2.406000000     0.319000000    -6.326000000
H    -3.462000000     0.696000000    -5.310000000
O    -0.347000000     5.310000000     4.969000000
H    -1.211000000     5.627000000     5.230000000
H    -0.361000000     5.336000000     4.012000000
O    -3.323000000     3.853000000     1.351000000
H    -3.303000000     3.243000000     0.613000000
H    -3.350000000     3.291000000     2.125000000
O    -4.772000000    -0.073000000     0.219000000
H    -5.240000000    -0.524000000    -0.484000000
H    -4.936000000     0.856000000     0.059000000
O     2.999000000    -4.077000000    -0.402000000
H     2.242000000    -4.442000000     0.054000000
H     3.627000000    -3.881000000     0.294000000
O    -3.513000000    -0.515000000    -3.357000000
H    -2.713000000    -0.792000000    -2.910000000
H    -4.222000000    -0.842000000    -2.804000000
O     3.203000000     5.878000000    -0.482000000
H     2.808000000     5.068000000    -0.805000000
H     4.087000000     5.877000000    -0.849000000
O    -0.472000000     6.600000000    -1.251000000
H     0.168000000     7.177000000    -1.668000000
H    -1.314000000     6.874000000    -1.614000000
