144
-2799.29364
O    -2.939000000    -5.994000000     3.289000000
H    -3.738000000    -5.467000000     3.261000000
H    -2.283000000    -5.460000000     2.841000000
O    -4.275000000     2.449000000    -0.920000000
H    -5.229000000     2.480000000    -0.845000000
H    -4.083000000     1.544000000    -1.166000000
O     1.049000000    -4.168000000    -5.786000000
H     0.223000000    -4.450000000    -6.180000000
H     0.797000000    -3.480000000    -5.170000000
O     2.143000000    -4.915000000    -3.172000000
H     2.092000000    -4.023000000    -2.828000000
H     1.968000000    -4.822000000    -4.108000000
O    -4.957000000    -0.170000000     2.869000000
H    -5.538000000    -0.801000000     3.293000000
H    -5.509000000     0.597000000     2.714000000
O    -1.333000000     0.066000000     4.481000000
H    -0.444000000    -0.270000000     4.598000000
H    -1.880000000    -0.718000000     4.434000000
O    -3.796000000     4.375000000     3.090000000
H    -4.598000000     4.589000000     3.568000000
H    -4.077000000     4.287000000     2.179000000
O     1.209000000     0.114000000    -6.383000000
H     1.123000000    -0.511000000    -5.662000000
H     1.201000000     0.972000000    -5.958000000
O    -2.250000000    -3.361000000     6.167000000
H    -1.327000000    -3.584000000     6.289000000
H    -2.278000000    -2.911000000     5.324000000
O    -4.964000000    -3.209000000     1.154000000
H    -5.604000000    -2.853000000     1.770000000
H    -4.423000000    -2.458000000     0.908000000
O     5.088000000     1.354000000    -4.307000000
H     4.552000000     0.561000000    -4.307000000
H     4.719000000     1.893000000    -5.007000000
O     3.578000000    -0.998000000    -4.276000000
H     3.060000000    -1.372000000    -3.563000000
H     3.988000000    -1.754000000    -4.696000000
O    -6.481000000     1.064000000    -0.858000000
H    -7.185000000     0.427000000    -0.738000000
H    -6.442000000     1.202000000    -1.804000000
O     2.161000000     6.018000000     3.721000000
H     1.863000000     5.252000000     3.230000000
H     2.947000000     5.718000000     4.179000000
O    -1.396000000     5.520000000     2.540000000
H    -0.677000000     4.904000000     2.402000000
H    -2.108000000     4.984000000     2.889000000
O    -4.374000000    -0.616000000     0.243000000
H    -5.026000000    -0.101000000    -0.234000000
H    -4.625000000    -0.528000000     1.162000000
O    -6.192000000     1.891000000     2.482000000
H    -6.408000000     2.717000000     2.916000000
H    -6.206000000     2.102000000     1.548000000
O     0.064000000    -5.473000000    -0.644000000
H     0.474000000    -6.232000000    -0.230000000
H     0.781000000    -4.853000000    -0.772000000
O     0.289000000    -3.016000000     5.360000000
H     1.198000000    -2.896000000     5.633000000
H     0.304000000    -3.802000000     4.815000000
O    -4.628000000     5.049000000     0.661000000
H    -5.100000000     5.527000000    -0.021000000
H    -4.323000000     4.252000000     0.227000000
O     3.307000000     2.969000000     0.392000000
H     4.158000000     2.687000000     0.058000000
H     2.671000000     2.550000000    -0.188000000
O     4.439000000    -3.374000000    -1.678000000
H     4.001000000    -4.186000000    -1.423000000
H     3.728000000    -2.742000000    -1.785000000
O    -2.827000000    -2.523000000     3.557000000
H    -3.632000000    -2.973000000     3.814000000
H    -2.551000000    -2.967000000     2.755000000
O    -2.112000000    -4.484000000     1.193000000
H    -1.739000000    -4.994000000     0.473000000
H    -3.022000000    -4.336000000     0.935000000
O    -3.779000000     4.104000000    -3.891000000
H    -2.987000000     4.471000000    -3.497000000
H    -4.241000000     3.692000000    -3.161000000
O     2.999000000    -4.287000000     1.597000000
H     2.571000000    -3.713000000     0.963000000
H     3.524000000    -4.884000000     1.064000000
O     1.151000000     3.777000000     1.943000000
H     1.905000000     3.527000000     1.408000000
H     1.149000000     3.148000000     2.664000000
O     4.000000000    -3.206000000     3.873000000
H     4.874000000    -3.597000000     3.892000000
H     3.660000000    -3.422000000     3.005000000
O    -1.269000000     0.412000000    -4.273000000
H    -1.751000000     0.464000000    -3.448000000
H    -0.882000000    -0.464000000    -4.269000000
O     0.409000000    -2.014000000    -4.055000000
H    -0.363000000    -2.380000000    -3.623000000
H     1.092000000    -2.038000000    -3.384000000
O     5.800000000    -5.744000000    -2.536000000
H     4.959000000    -5.758000000    -2.079000000
H     6.040000000    -4.818000000    -2.568000000
O    -3.366000000     2.510000000     4.999000000
H    -2.659000000     1.866000000     5.035000000
H    -3.219000000     2.982000000     4.179000000
O     3.454000000    -6.160000000    -1.102000000
H     2.888000000    -6.606000000    -0.472000000
H     2.887000000    -5.988000000    -1.854000000
O     2.484000000    -0.207000000     3.522000000
H     2.376000000    -0.148000000     2.573000000
H     2.725000000    -1.120000000     3.679000000
O    -2.339000000    -5.729000000    -1.809000000
H    -2.230000000    -6.335000000    -2.542000000
H    -1.450000000    -5.440000000    -1.603000000
O     6.834000000    -2.096000000    -1.410000000
H     7.212000000    -2.401000000    -2.234000000
H     5.964000000    -2.495000000    -1.383000000
O    -2.446000000    -0.501000000    -1.599000000
H    -3.177000000    -0.749000000    -1.033000000
H    -1.846000000    -0.027000000    -1.022000000
O     0.302000000     3.121000000     4.423000000
H     0.963000000     3.012000000     5.107000000
H    -0.001000000     2.231000000     4.239000000
O     4.643000000     0.084000000     0.906000000
H     4.422000000    -0.168000000     0.009000000
H     5.140000000    -0.660000000     1.248000000
O     0.641000000     2.273000000    -4.867000000
H    -0.211000000     1.963000000    -4.560000000
H     0.974000000     2.810000000    -4.147000000
O    -2.433000000     6.768000000    -0.654000000
H    -1.833000000     6.168000000    -0.211000000
H    -2.538000000     7.497000000    -0.043000000
O     0.140000000    -4.416000000     2.958000000
H    -0.493000000    -4.247000000     2.260000000
H     0.955000000    -4.617000000     2.499000000
O    -1.204000000     5.059000000    -2.837000000
H    -0.367000000     4.882000000    -3.265000000
H    -0.971000000     5.262000000    -1.930000000
O     0.476000000     5.442000000    -0.126000000
H     1.193000000     6.053000000     0.041000000
H     0.581000000     4.761000000     0.539000000
O    -2.336000000    -2.856000000    -3.041000000
H    -2.737000000    -3.494000000    -2.452000000
H    -2.550000000    -2.006000000    -2.656000000
O    -3.393000000     7.276000000     2.110000000
H    -3.847000000     6.702000000     1.493000000
H    -2.602000000     6.793000000     2.349000000
O     5.579000000     1.992000000    -1.297000000
H     5.129000000     1.652000000    -2.071000000
H     5.964000000     2.819000000    -1.589000000
O     1.498000000     3.676000000    -2.689000000
H     1.338000000     4.177000000    -1.889000000
H     2.429000000     3.806000000    -2.870000000
