144
-2806.75135
O    -4.071000000     5.415000000    -0.068000000
H    -3.771000000     4.662000000    -0.577000000
H    -3.341000000     6.033000000    -0.102000000
O     1.976000000    -4.434000000    -4.833000000
H     1.490000000    -3.645000000    -4.592000000
H     2.893000000    -4.159000000    -4.838000000
O     2.126000000    -5.824000000     1.580000000
H     1.687000000    -6.464000000     1.020000000
H     2.117000000    -6.223000000     2.451000000
O    -2.198000000     1.778000000     5.012000000
H    -1.562000000     1.092000000     4.808000000
H    -3.044000000     1.399000000     4.771000000
O    -5.662000000     3.239000000     2.291000000
H    -6.254000000     3.715000000     2.873000000
H    -6.240000000     2.791000000     1.674000000
O     0.586000000     1.278000000    -5.738000000
H     0.602000000     0.377000000    -5.416000000
H     0.436000000     1.809000000    -4.956000000
O     2.563000000     2.009000000     4.036000000
H     2.463000000     2.929000000     3.794000000
H     2.627000000     1.547000000     3.200000000
O     4.908000000     2.620000000    -0.108000000
H     5.166000000     2.926000000    -0.977000000
H     4.649000000     1.708000000    -0.242000000
O     3.684000000     1.686000000    -5.999000000
H     3.934000000     1.415000000    -5.115000000
H     2.770000000     1.415000000    -6.082000000
O     3.752000000     0.953000000    -3.396000000
H     3.168000000     0.229000000    -3.169000000
H     4.536000000     0.803000000    -2.868000000
O    -5.778000000     2.116000000    -1.682000000
H    -5.930000000     2.642000000    -0.896000000
H    -6.649000000     1.819000000    -1.943000000
O    -3.147000000     4.384000000     3.099000000
H    -3.525000000     4.413000000     3.978000000
H    -3.829000000     3.987000000     2.558000000
O     4.515000000    -0.880000000     0.370000000
H     5.222000000    -1.324000000     0.838000000
H     4.469000000    -1.328000000    -0.475000000
O    -4.235000000    -0.161000000    -0.443000000
H    -4.571000000     0.382000000    -1.157000000
H    -4.438000000     0.335000000     0.350000000
O     2.095000000     4.424000000     2.800000000
H     2.184000000     4.060000000     1.919000000
H     2.116000000     5.372000000     2.670000000
O    -1.007000000    -3.907000000    -1.814000000
H    -1.245000000    -4.591000000    -1.188000000
H    -0.085000000    -3.725000000    -1.631000000
O    -0.474000000    -0.256000000     4.717000000
H     0.315000000     0.055000000     5.162000000
H    -0.151000000    -0.664000000     3.914000000
O     0.852000000     5.651000000    -3.791000000
H     1.283000000     6.387000000    -4.227000000
H     1.562000000     5.187000000    -3.348000000
O     4.883000000    -2.574000000    -2.059000000
H     4.855000000    -3.482000000    -2.360000000
H     4.022000000    -2.220000000    -2.284000000
O    -5.275000000    -1.277000000     3.028000000
H    -6.088000000    -1.698000000     2.746000000
H    -4.618000000    -1.582000000     2.401000000
O    -4.189000000    -2.884000000     0.794000000
H    -3.845000000    -3.720000000     0.478000000
H    -3.720000000    -2.224000000     0.285000000
O     7.352000000    -1.648000000    -1.508000000
H     6.516000000    -2.041000000    -1.759000000
H     7.736000000    -2.273000000    -0.893000000
O     2.685000000    -3.422000000     1.106000000
H     2.415000000    -3.307000000     0.195000000
H     2.545000000    -4.353000000     1.281000000
O    -0.181000000     5.470000000     0.367000000
H     0.137000000     6.348000000     0.158000000
H     0.613000000     4.947000000     0.477000000
O    -0.546000000     2.714000000     6.996000000
H    -1.123000000     2.946000000     6.268000000
H     0.207000000     2.293000000     6.581000000
O     1.039000000    -2.777000000     3.498000000
H     1.570000000    -2.591000000     4.272000000
H     1.613000000    -3.292000000     2.931000000
O    -2.586000000     0.970000000    -4.904000000
H    -2.277000000     0.856000000    -4.005000000
H    -3.537000000     1.040000000    -4.824000000
O     0.025000000     6.045000000     5.678000000
H     0.116000000     5.207000000     5.225000000
H     0.057000000     6.699000000     4.981000000
O     1.195000000    -1.013000000    -4.632000000
H     0.412000000    -1.533000000    -4.450000000
H     1.734000000    -1.109000000    -3.847000000
O     4.565000000    -5.379000000    -1.765000000
H     3.669000000    -5.714000000    -1.775000000
H     4.705000000    -5.095000000    -0.862000000
O    -4.749000000     1.048000000     4.087000000
H    -5.175000000     0.243000000     3.793000000
H    -4.806000000     1.637000000     3.335000000
O     1.389000000    -6.155000000    -1.717000000
H     0.462000000    -6.244000000    -1.497000000
H     1.555000000    -5.213000000    -1.677000000
O     2.395000000     0.308000000     1.905000000
H     3.088000000    -0.099000000     1.385000000
H     1.585000000     0.059000000     1.461000000
O    -2.176000000    -0.178000000    -2.108000000
H    -2.750000000    -0.178000000    -1.342000000
H    -1.377000000     0.256000000    -1.808000000
O    -0.468000000     3.939000000     4.237000000
H     0.151000000     3.941000000     3.506000000
H    -1.281000000     3.603000000     3.861000000
O     2.100000000     3.778000000     0.267000000
H     2.242000000     2.832000000     0.258000000
H     2.413000000     4.076000000    -0.587000000
O    -0.835000000     2.628000000    -3.428000000
H    -1.461000000     2.689000000    -4.150000000
H    -1.083000000     3.338000000    -2.836000000
O     0.838000000    -2.076000000    -7.631000000
H     0.022000000    -1.577000000    -7.660000000
H     1.315000000    -1.713000000    -6.885000000
O    -0.670000000    -4.716000000     4.142000000
H     0.155000000    -4.269000000     4.328000000
H    -1.301000000    -4.009000000     4.007000000
O    -1.686000000     4.586000000    -1.981000000
H    -1.119000000     4.621000000    -1.211000000
H    -1.326000000     5.245000000    -2.574000000
O    -1.156000000    -1.557000000     7.189000000
H    -0.986000000    -1.189000000     6.322000000
H    -1.614000000    -0.861000000     7.659000000
O    -4.737000000     1.894000000     6.577000000
H    -4.661000000     2.791000000     6.253000000
H    -4.565000000     1.347000000     5.811000000
O     6.324000000     0.612000000    -2.583000000
H     6.849000000     0.067000000    -1.997000000
H     6.629000000     0.382000000    -3.461000000
O    -1.766000000     6.480000000     2.417000000
H    -1.485000000     6.099000000     1.585000000
H    -2.323000000     5.809000000     2.812000000
O    -1.021000000    -2.116000000    -3.831000000
H    -1.120000000    -2.841000000    -3.214000000
H    -1.554000000    -1.413000000    -3.461000000
O     5.035000000    -2.780000000     2.283000000
H     4.200000000    -2.546000000     1.877000000
H     5.308000000    -3.576000000     1.827000000
O     6.481000000    -0.944000000    -5.860000000
H     5.615000000    -0.774000000    -5.489000000
H     6.394000000    -0.718000000    -6.786000000
O     2.978000000     4.250000000    -2.690000000
H     2.771000000     3.354000000    -2.954000000
H     3.892000000     4.371000000    -2.950000000
