144
-2809.36330
O     0.830000000    -4.411000000    -5.093000000
H     0.837000000    -4.975000000    -5.866000000
H     1.528000000    -4.758000000    -4.537000000
O    -2.631000000     4.547000000     4.249000000
H    -3.282000000     4.633000000     3.552000000
H    -2.720000000     3.642000000     4.549000000
O     3.106000000     1.824000000    -3.407000000
H     4.046000000     1.735000000    -3.563000000
H     2.814000000     0.937000000    -3.195000000
O    -6.774000000    -1.797000000    -0.424000000
H    -6.721000000    -2.739000000    -0.262000000
H    -5.865000000    -1.498000000    -0.400000000
O     3.543000000    -4.260000000    -2.200000000
H     2.833000000    -4.580000000    -1.642000000
H     3.490000000    -3.306000000    -2.131000000
O    -6.129000000     1.613000000     5.148000000
H    -5.232000000     1.840000000     5.393000000
H    -6.031000000     0.942000000     4.473000000
O    -5.758000000    -0.454000000     3.095000000
H    -6.504000000    -1.011000000     2.871000000
H    -5.701000000     0.172000000     2.373000000
O    -3.278000000    -2.912000000     1.939000000
H    -2.688000000    -3.665000000     1.883000000
H    -3.875000000    -3.129000000     2.655000000
O     1.151000000     2.676000000     1.448000000
H     1.456000000     2.956000000     2.312000000
H     0.525000000     1.976000000     1.630000000
O     4.523000000    -0.535000000    -6.568000000
H     3.630000000    -0.872000000    -6.486000000
H     4.506000000     0.302000000    -6.103000000
O     1.387000000     4.743000000     3.900000000
H     1.108000000     5.386000000     4.552000000
H     0.967000000     3.928000000     4.172000000
O     0.803000000    -1.492000000    -4.837000000
H     1.396000000    -1.214000000    -4.138000000
H     0.855000000    -2.447000000    -4.829000000
O     2.262000000     1.878000000    -5.989000000
H     1.364000000     1.827000000    -5.660000000
H     2.808000000     1.814000000    -5.206000000
O     6.537000000    -4.412000000    -1.122000000
H     7.068000000    -4.312000000    -0.332000000
H     5.644000000    -4.219000000    -0.836000000
O    -4.313000000     1.162000000    -1.709000000
H    -3.773000000     1.167000000    -2.499000000
H    -3.780000000     0.707000000    -1.057000000
O    -4.244000000    -0.987000000     0.179000000
H    -3.665000000    -1.176000000    -0.559000000
H    -4.039000000    -1.664000000     0.824000000
O    -4.630000000     4.315000000     2.456000000
H    -4.437000000     4.036000000     1.561000000
H    -5.106000000     5.139000000     2.354000000
O    -1.851000000     0.270000000     5.871000000
H    -1.700000000    -0.051000000     6.760000000
H    -2.247000000    -0.472000000     5.413000000
O     4.817000000     0.239000000     0.268000000
H     3.988000000    -0.240000000     0.266000000
H     4.564000000     1.155000000     0.153000000
O     7.175000000    -1.258000000    -0.277000000
H     6.453000000    -1.879000000    -0.175000000
H     6.797000000    -0.411000000    -0.042000000
O    -1.787000000    -2.110000000     4.411000000
H    -2.240000000    -2.184000000     3.571000000
H    -0.911000000    -2.458000000     4.242000000
O     3.135000000     4.303000000    -2.022000000
H     3.056000000     3.368000000    -2.209000000
H     2.358000000     4.509000000    -1.502000000
O    -6.039000000    -1.636000000     5.589000000
H    -6.858000000    -2.012000000     5.267000000
H    -5.580000000    -1.351000000     4.799000000
O     1.355000000    -5.209000000    -0.885000000
H     0.420000000    -5.007000000    -0.857000000
H     1.594000000    -5.367000000     0.029000000
O    -1.020000000     4.009000000    -2.676000000
H    -0.556000000     4.297000000    -3.461000000
H    -0.782000000     4.651000000    -2.007000000
O     4.161000000    -3.612000000     3.329000000
H     4.872000000    -3.618000000     3.970000000
H     4.301000000    -4.403000000     2.809000000
O     1.154000000    -5.946000000     1.540000000
H     1.702000000    -6.172000000     2.292000000
H     0.824000000    -6.786000000     1.222000000
O    -4.871000000     3.423000000    -0.099000000
H    -5.332000000     4.259000000    -0.169000000
H    -4.905000000     3.057000000    -0.983000000
O     2.838000000    -6.679000000    -3.377000000
H     3.651000000    -7.147000000    -3.189000000
H     2.909000000    -5.865000000    -2.878000000
O    -2.737000000     2.108000000    -3.757000000
H    -3.439000000     2.726000000    -3.964000000
H    -2.085000000     2.633000000    -3.294000000
O     0.922000000    -1.997000000    -7.554000000
H     1.111000000    -2.935000000    -7.578000000
H     0.531000000    -1.854000000    -6.692000000
O    -1.763000000    -1.040000000    -4.661000000
H    -0.817000000    -1.087000000    -4.521000000
H    -2.143000000    -1.304000000    -3.823000000
O     0.386000000    -3.720000000     3.577000000
H     1.326000000    -3.891000000     3.634000000
H     0.098000000    -4.216000000     2.810000000
O     2.787000000    -1.499000000     4.392000000
H     2.444000000    -1.762000000     5.246000000
H     3.244000000    -2.276000000     4.068000000
O     4.847000000    -2.763000000     0.573000000
H     4.275000000    -2.819000000     1.338000000
H     4.346000000    -2.255000000    -0.064000000
O    -0.805000000    -3.792000000    -2.926000000
H    -1.617000000    -3.899000000    -3.422000000
H    -0.116000000    -4.060000000    -3.534000000
O     0.351000000     5.096000000    -4.592000000
H     1.137000000     4.553000000    -4.658000000
H     0.607000000     5.935000000    -4.973000000
O    -0.497000000     5.914000000     1.785000000
H    -0.488000000     5.399000000     2.592000000
H    -1.423000000     6.109000000     1.637000000
O    -6.495000000     1.036000000     1.020000000
H    -5.767000000     1.633000000     0.845000000
H    -6.392000000     0.338000000     0.373000000
O    -2.062000000    -5.172000000     1.449000000
H    -2.388000000    -6.059000000     1.604000000
H    -1.404000000    -5.276000000     0.762000000
O     0.888000000     4.955000000    -0.218000000
H     0.334000000     5.487000000     0.353000000
H     0.962000000     4.115000000     0.235000000
O    -0.635000000     1.475000000    -5.427000000
H    -0.893000000     0.554000000    -5.466000000
H    -1.340000000     1.901000000    -4.938000000
O     2.812000000     1.245000000     4.078000000
H     2.798000000     0.297000000     3.949000000
H     1.919000000     1.463000000     4.345000000
O     0.513000000     2.418000000     4.786000000
H    -0.095000000     1.678000000     4.776000000
H     0.210000000     2.966000000     5.509000000
O    -3.436000000     2.298000000     5.492000000
H    -2.827000000     1.577000000     5.649000000
H    -3.789000000     2.506000000     6.358000000
O    -2.148000000    -1.470000000    -1.763000000
H    -1.785000000    -2.355000000    -1.806000000
H    -1.450000000    -0.944000000    -1.371000000
O     5.271000000     0.048000000    -2.773000000
H     5.567000000     0.309000000    -1.901000000
H     4.588000000    -0.602000000    -2.609000000
O     6.498000000    -0.975000000    -4.875000000
H     5.717000000    -0.832000000    -5.410000000
H     6.312000000    -0.520000000    -4.054000000
