144
-2819.51268
O     5.440000000    -3.124000000    -6.102000000
H     5.550000000    -3.651000000    -6.894000000
H     4.526000000    -2.840000000    -6.130000000
O    -4.729000000     3.342000000     1.683000000
H    -5.197000000     2.581000000     2.025000000
H    -3.918000000     3.373000000     2.191000000
O     2.885000000    -1.922000000    -5.622000000
H     2.106000000    -2.193000000    -6.109000000
H     2.585000000    -1.839000000    -4.717000000
O    -6.603000000     0.929000000    -0.531000000
H    -7.341000000     0.324000000    -0.604000000
H    -5.975000000     0.475000000     0.031000000
O     0.657000000    -4.122000000    -5.244000000
H    -0.219000000    -4.263000000    -5.603000000
H     0.511000000    -3.607000000    -4.451000000
O    -3.721000000     1.148000000     4.542000000
H    -4.142000000     1.486000000     5.332000000
H    -2.829000000     1.495000000     4.579000000
O    -4.638000000    -0.662000000     1.013000000
H    -4.708000000    -1.607000000     1.149000000
H    -3.807000000    -0.547000000     0.553000000
O     2.389000000     3.631000000    -1.158000000
H     1.604000000     3.706000000    -0.615000000
H     2.546000000     2.689000000    -1.223000000
O     4.685000000    -2.942000000     1.003000000
H     5.145000000    -2.123000000     0.819000000
H     4.496000000    -3.310000000     0.140000000
O     1.834000000     4.237000000     2.197000000
H     2.311000000     3.502000000     2.583000000
H     1.904000000     4.936000000     2.846000000
O    -2.065000000    -5.861000000    -4.013000000
H    -3.009000000    -5.761000000    -3.889000000
H    -1.685000000    -5.087000000    -3.598000000
O    -0.477000000    -0.454000000    -4.793000000
H     0.246000000    -0.649000000    -4.196000000
H    -0.411000000    -1.123000000    -5.474000000
O     4.578000000    -1.995000000     3.870000000
H     4.992000000    -1.473000000     3.184000000
H     3.669000000    -2.088000000     3.585000000
O     1.979000000     4.182000000    -3.781000000
H     1.986000000     3.255000000    -4.017000000
H     2.335000000     4.206000000    -2.893000000
O     4.611000000    -3.159000000    -1.963000000
H     3.670000000    -2.986000000    -1.940000000
H     4.713000000    -3.846000000    -2.622000000
O    -1.979000000    -3.317000000     5.468000000
H    -2.463000000    -3.973000000     4.966000000
H    -1.065000000    -3.597000000     5.411000000
O    -3.714000000     4.889000000    -0.571000000
H    -4.315000000     5.624000000    -0.452000000
H    -4.195000000     4.130000000    -0.241000000
O     0.782000000    -3.701000000     5.062000000
H     1.552000000    -3.646000000     4.496000000
H     0.861000000    -2.949000000     5.648000000
O    -2.848000000     3.766000000    -5.204000000
H    -2.790000000     3.604000000    -4.262000000
H    -2.290000000     3.095000000    -5.597000000
O    -4.095000000    -1.704000000     4.409000000
H    -3.807000000    -0.816000000     4.620000000
H    -3.328000000    -2.252000000     4.578000000
O     2.639000000     1.112000000     1.012000000
H     1.687000000     1.022000000     1.063000000
H     2.888000000     1.497000000     1.851000000
O    -2.710000000    -1.087000000    -0.802000000
H    -2.967000000    -1.102000000    -1.724000000
H    -1.897000000    -0.582000000    -0.788000000
O     0.512000000    -6.497000000    -1.192000000
H     1.360000000    -6.746000000    -1.559000000
H    -0.130000000    -6.900000000    -1.777000000
O     2.558000000    -7.096000000    -2.782000000
H     3.496000000    -7.230000000    -2.642000000
H     2.511000000    -6.422000000    -3.460000000
O     2.453000000     1.533000000    -4.262000000
H     2.111000000     0.653000000    -4.104000000
H     2.974000000     1.730000000    -3.484000000
O     2.811000000    -5.909000000    -5.273000000
H     2.127000000    -5.247000000    -5.171000000
H     2.517000000    -6.448000000    -6.007000000
O    -1.558000000     4.664000000    -2.099000000
H    -0.945000000     4.557000000    -1.372000000
H    -2.365000000     4.975000000    -1.688000000
O    -1.497000000    -4.244000000     1.239000000
H    -1.635000000    -4.468000000     2.159000000
H    -0.842000000    -3.546000000     1.258000000
O     2.762000000    -3.814000000     2.607000000
H     2.543000000    -4.460000000     1.935000000
H     3.528000000    -3.357000000     2.260000000
O    -0.531000000     5.260000000     5.370000000
H    -0.812000000     4.466000000     5.825000000
H    -0.032000000     5.747000000     6.026000000
O    -3.617000000     2.230000000    -2.888000000
H    -3.134000000     2.923000000    -2.438000000
H    -4.537000000     2.474000000    -2.786000000
O     1.030000000     1.396000000     6.274000000
H     1.029000000     1.953000000     7.053000000
H     1.204000000     0.517000000     6.609000000
O    -3.025000000     4.092000000     3.768000000
H    -2.097000000     4.243000000     3.946000000
H    -3.270000000     3.381000000     4.360000000
O     2.150000000    -4.665000000    -0.212000000
H     1.444000000    -5.255000000    -0.475000000
H     2.054000000    -3.905000000    -0.787000000
O     0.560000000    -1.734000000    -7.067000000
H    -0.278000000    -2.025000000    -7.427000000
H     0.996000000    -1.296000000    -7.798000000
O     4.029000000     0.452000000    -6.470000000
H     3.706000000    -0.446000000    -6.400000000
H     3.583000000     0.922000000    -5.766000000
O    -1.561000000     6.637000000     0.168000000
H    -2.075000000     5.841000000     0.034000000
H    -1.980000000     7.290000000    -0.392000000
O     5.057000000    -0.189000000     1.599000000
H     5.801000000     0.178000000     1.122000000
H     4.289000000     0.113000000     1.114000000
O    -1.068000000    -3.833000000    -2.590000000
H    -1.412000000    -3.828000000    -1.696000000
H    -0.119000000    -3.758000000    -2.482000000
O    -0.044000000     4.511000000     0.331000000
H    -0.516000000     5.336000000     0.447000000
H     0.552000000     4.469000000     1.079000000
O    -1.271000000     1.990000000    -6.286000000
H    -1.040000000     1.149000000    -5.892000000
H    -1.005000000     1.907000000    -7.201000000
O     3.080000000     1.997000000     4.110000000
H     2.341000000     1.911000000     4.712000000
H     3.843000000     2.097000000     4.681000000
O    -1.481000000     2.347000000     5.481000000
H    -1.866000000     2.535000000     6.337000000
H    -0.583000000     2.078000000     5.677000000
O     3.184000000     1.055000000    -1.691000000
H     3.894000000     0.420000000    -1.780000000
H     3.008000000     1.087000000    -0.750000000
O     4.351000000    -6.595000000     0.587000000
H     3.661000000    -6.004000000     0.287000000
H     4.890000000    -6.748000000    -0.189000000
O    -5.971000000     0.938000000     2.802000000
H    -5.243000000     0.874000000     3.420000000
H    -5.741000000     0.334000000     2.096000000
O    -2.954000000    -0.384000000    -3.601000000
H    -2.237000000    -0.442000000    -4.232000000
H    -3.037000000     0.552000000    -3.418000000
O     5.434000000    -0.480000000    -1.557000000
H     6.031000000    -0.403000000    -2.302000000
H     5.174000000    -1.401000000    -1.553000000
