144
-2819.48897
O     2.109000000    -3.082000000    -6.796000000
H     2.594000000    -2.636000000    -7.491000000
H     1.987000000    -3.973000000    -7.124000000
O    -3.339000000     4.552000000     2.403000000
H    -4.028000000     5.108000000     2.768000000
H    -2.668000000     4.524000000     3.084000000
O     0.557000000    -1.197000000    -5.398000000
H     0.774000000    -2.016000000    -5.844000000
H     0.621000000    -1.408000000    -4.466000000
O    -0.447000000    -5.866000000    -4.987000000
H    -0.352000000    -6.649000000    -4.445000000
H    -0.423000000    -5.140000000    -4.364000000
O     6.088000000    -4.492000000    -4.256000000
H     5.893000000    -4.284000000    -5.170000000
H     5.293000000    -4.251000000    -3.781000000
O    -1.930000000    -0.350000000     4.682000000
H    -2.247000000    -0.245000000     3.785000000
H    -2.722000000    -0.493000000     5.201000000
O     0.939000000     6.970000000    -2.751000000
H     0.462000000     6.146000000    -2.849000000
H     1.585000000     6.793000000    -2.067000000
O     0.163000000     6.363000000     3.237000000
H    -0.380000000     5.586000000     3.105000000
H     0.618000000     6.200000000     4.063000000
O     1.429000000     0.942000000    -6.551000000
H     2.376000000     0.809000000    -6.600000000
H     1.098000000     0.153000000    -6.123000000
O     4.072000000    -1.592000000    -0.084000000
H     4.849000000    -1.902000000    -0.549000000
H     3.359000000    -2.133000000    -0.423000000
O     3.686000000    -3.011000000    -4.409000000
H     2.972000000    -2.725000000    -3.840000000
H     3.282000000    -3.104000000    -5.272000000
O     1.622000000     3.707000000     3.760000000
H     1.383000000     4.094000000     4.603000000
H     1.788000000     2.785000000     3.959000000
O    -4.074000000     3.526000000     0.038000000
H    -3.670000000     3.591000000     0.904000000
H    -5.015000000     3.496000000     0.214000000
O    -0.051000000    -2.780000000     3.827000000
H    -0.752000000    -2.435000000     3.273000000
H    -0.057000000    -2.217000000     4.600000000
O     3.033000000    -6.355000000    -4.215000000
H     3.720000000    -6.987000000    -4.000000000
H     3.122000000    -5.671000000    -3.551000000
O    -4.250000000     1.530000000     6.030000000
H    -4.152000000     1.660000000     5.087000000
H    -5.090000000     1.082000000     6.124000000
O    -5.491000000    -0.107000000     3.606000000
H    -6.161000000    -0.710000000     3.929000000
H    -5.921000000     0.370000000     2.895000000
O     2.043000000     3.967000000     1.041000000
H     1.603000000     4.089000000     1.882000000
H     2.311000000     3.048000000     1.042000000
O     5.288000000    -6.242000000     0.031000000
H     5.102000000    -5.686000000     0.788000000
H     6.243000000    -6.295000000     0.001000000
O     2.901000000     0.736000000     1.287000000
H     3.529000000     0.539000000     0.592000000
H     2.112000000     0.255000000     1.040000000
O    -2.737000000    -1.198000000    -1.885000000
H    -1.908000000    -0.819000000    -1.592000000
H    -2.857000000    -0.856000000    -2.771000000
O     1.515000000    -6.837000000    -1.292000000
H     1.938000000    -6.220000000    -1.888000000
H     1.663000000    -7.695000000    -1.690000000
O    -3.823000000    -3.271000000    -0.142000000
H    -4.733000000    -3.480000000    -0.352000000
H    -3.624000000    -2.503000000    -0.677000000
O    -3.207000000     5.981000000    -1.122000000
H    -2.723000000     6.390000000    -0.404000000
H    -3.440000000     5.114000000    -0.790000000
O    -2.179000000    -2.729000000     2.068000000
H    -2.704000000    -2.963000000     2.834000000
H    -2.800000000    -2.739000000     1.340000000
O     1.926000000     0.989000000     3.790000000
H     2.222000000     0.811000000     2.897000000
H     2.216000000     0.228000000     4.294000000
O     3.073000000    -4.112000000     4.411000000
H     2.899000000    -4.793000000     5.061000000
H     2.205000000    -3.810000000     4.143000000
O     0.009000000    -5.528000000     3.310000000
H     0.954000000    -5.561000000     3.158000000
H    -0.165000000    -4.615000000     3.539000000
O    -2.955000000     2.729000000    -2.380000000
H    -3.822000000     2.651000000    -2.777000000
H    -3.128000000     2.802000000    -1.441000000
O     3.843000000     4.144000000    -3.090000000
H     3.946000000     3.355000000    -2.557000000
H     3.242000000     4.695000000    -2.589000000
O     2.394000000    -5.079000000     0.636000000
H     2.233000000    -4.415000000    -0.035000000
H     2.041000000    -5.887000000     0.264000000
O    -1.392000000    -4.533000000    -0.292000000
H    -2.253000000    -4.121000000    -0.218000000
H    -0.991000000    -4.406000000     0.568000000
O    -0.247000000     1.609000000     5.279000000
H    -0.798000000     0.893000000     4.963000000
H     0.578000000     1.504000000     4.804000000
O     3.621000000    -5.141000000    -2.114000000
H     4.170000000    -5.434000000    -1.387000000
H     3.249000000    -4.312000000    -1.813000000
O     3.998000000    -0.287000000    -7.028000000
H     4.064000000    -0.365000000    -6.076000000
H     4.495000000    -1.032000000    -7.365000000
O     3.776000000     0.258000000    -3.586000000
H     3.190000000    -0.485000000    -3.439000000
H     3.884000000     0.653000000    -2.721000000
O     6.441000000    -1.499000000    -3.727000000
H     5.530000000    -1.692000000    -3.510000000
H     6.417000000    -1.234000000    -4.647000000
O    -0.301000000    -4.442000000    -2.733000000
H    -0.742000000    -4.568000000    -1.892000000
H     0.471000000    -3.917000000    -2.522000000
O    -0.353000000     2.879000000    -5.077000000
H    -0.711000000     2.235000000    -5.687000000
H     0.535000000     3.042000000    -5.394000000
O    -1.033000000     4.178000000     4.179000000
H    -0.402000000     3.516000000     3.895000000
H    -1.516000000     3.758000000     4.891000000
O     4.570000000     1.512000000    -1.334000000
H     4.838000000     2.255000000    -0.792000000
H     5.249000000     0.853000000    -1.188000000
O    -1.303000000    -7.261000000    -1.061000000
H    -1.303000000    -6.312000000    -0.939000000
H    -0.599000000    -7.422000000    -1.689000000
O    -6.345000000     3.090000000     3.334000000
H    -6.467000000     3.439000000     2.452000000
H    -7.152000000     3.316000000     3.796000000
O     2.920000000     5.680000000    -1.013000000
H     2.678000000     4.910000000    -0.498000000
H     3.197000000     6.326000000    -0.363000000
O    -1.948000000     0.568000000    -3.939000000
H    -2.061000000     1.431000000    -3.540000000
H    -1.202000000     0.672000000    -4.528000000
O     4.620000000    -4.277000000     1.990000000
H     3.915000000    -4.370000000     1.350000000
H     4.171000000    -4.105000000     2.818000000
O     1.105000000    -2.333000000     6.377000000
H     1.497000000    -2.854000000     7.078000000
H     1.853000000    -1.977000000     5.897000000
O    -0.200000000     4.623000000    -3.021000000
H    -0.187000000     4.040000000    -3.779000000
H    -0.935000000     4.311000000    -2.492000000
