144
-2830.48581
O     0.850000000     3.178000000    -2.323000000
H     0.524000000     2.656000000    -1.590000000
H     1.765000000     2.914000000    -2.417000000
O    -0.562000000     1.284000000     5.527000000
H    -0.463000000     1.843000000     6.298000000
H     0.333000000     1.124000000     5.229000000
O     1.320000000     2.108000000    -5.408000000
H     1.835000000     2.026000000    -4.605000000
H     0.560000000     2.630000000    -5.152000000
O     0.183000000    -5.603000000    -2.944000000
H    -0.345000000    -6.344000000    -3.240000000
H    -0.445000000    -5.011000000    -2.530000000
O     0.238000000     3.490000000     7.431000000
H     0.921000000     4.156000000     7.355000000
H     0.557000000     2.896000000     8.110000000
O    -3.780000000     5.709000000    -1.913000000
H    -3.225000000     5.438000000    -2.645000000
H    -4.274000000     4.922000000    -1.683000000
O    -4.924000000     3.272000000    -1.335000000
H    -4.439000000     2.843000000    -0.630000000
H    -4.536000000     2.926000000    -2.139000000
O     1.418000000     3.772000000     3.088000000
H     1.320000000     2.826000000     3.197000000
H     0.542000000     4.123000000     3.244000000
O     1.462000000     1.255000000    -7.927000000
H     1.823000000     2.040000000    -8.339000000
H     1.706000000     1.335000000    -7.005000000
O     2.535000000     0.565000000     6.372000000
H     2.925000000     0.749000000     5.518000000
H     3.043000000    -0.170000000     6.715000000
O    -2.640000000     2.010000000    -7.237000000
H    -3.025000000     1.162000000    -7.019000000
H    -3.242000000     2.651000000    -6.860000000
O     3.895000000    -1.628000000     7.500000000
H     4.584000000    -2.179000000     7.128000000
H     3.578000000    -2.120000000     8.258000000
O     2.258000000    -0.436000000    -4.196000000
H     2.945000000    -0.055000000    -4.742000000
H     1.461000000     0.027000000    -4.454000000
O    -0.211000000     4.817000000     0.025000000
H     0.728000000     4.647000000    -0.054000000
H    -0.302000000     5.268000000     0.865000000
O    -3.420000000    -1.903000000    -1.280000000
H    -2.983000000    -1.698000000    -0.453000000
H    -3.798000000    -1.071000000    -1.564000000
O    -0.901000000     5.225000000    -2.664000000
H    -0.407000000     4.413000000    -2.771000000
H    -1.106000000     5.259000000    -1.729000000
O    -3.008000000     3.882000000     0.589000000
H    -3.272000000     4.684000000     1.040000000
H    -2.111000000     4.052000000     0.303000000
O     3.479000000     3.201000000     1.091000000
H     3.805000000     2.337000000     0.838000000
H     2.827000000     3.022000000     1.769000000
O    -1.847000000    -3.976000000    -1.518000000
H    -2.187000000    -4.323000000    -0.694000000
H    -2.340000000    -3.168000000    -1.660000000
O    -1.159000000    -1.348000000     5.596000000
H    -1.937000000    -1.491000000     6.134000000
H    -1.020000000    -0.401000000     5.622000000
O    -1.255000000     3.020000000    -5.048000000
H    -1.485000000     2.608000000    -5.881000000
H    -2.073000000     3.410000000    -4.740000000
O    -6.133000000     0.361000000    -0.358000000
H    -6.026000000    -0.545000000    -0.647000000
H    -5.333000000     0.553000000     0.130000000
O     1.024000000    -3.309000000    -4.641000000
H     1.412000000    -2.459000000    -4.846000000
H     1.404000000    -3.548000000    -3.795000000
O    -4.373000000    -0.569000000     3.794000000
H    -4.847000000    -0.592000000     4.625000000
H    -3.850000000     0.231000000     3.838000000
O    -3.668000000     2.129000000    -3.283000000
H    -3.308000000     1.243000000    -3.326000000
H    -3.962000000     2.311000000    -4.175000000
O     3.869000000     0.391000000     0.781000000
H     4.533000000    -0.213000000     1.113000000
H     3.529000000    -0.036000000    -0.006000000
O    -2.713000000     1.780000000     4.307000000
H    -2.538000000     2.537000000     3.747000000
H    -1.896000000     1.643000000     4.786000000
O    -3.862000000     1.130000000     0.826000000
H    -3.327000000     1.920000000     0.907000000
H    -3.314000000     0.431000000     1.181000000
O     2.365000000    -4.358000000     0.620000000
H     2.957000000    -5.106000000     0.527000000
H     1.732000000    -4.635000000     1.282000000
O    -2.244000000    -1.432000000     1.369000000
H    -1.386000000    -1.108000000     1.092000000
H    -2.047000000    -2.100000000     2.025000000
O     0.440000000     0.362000000     8.260000000
H     0.961000000     0.493000000     7.469000000
H     1.083000000     0.333000000     8.969000000
O     3.528000000     4.045000000     5.003000000
H     2.840000000     4.272000000     4.378000000
H     3.729000000     3.128000000     4.816000000
O     3.834000000    -2.513000000     2.226000000
H     3.365000000    -2.821000000     1.450000000
H     3.239000000    -1.883000000     2.632000000
O    -1.581000000     4.804000000     3.306000000
H    -2.185000000     4.495000000     3.981000000
H    -1.187000000     5.592000000     3.680000000
O    -0.639000000    -2.498000000     3.178000000
H    -1.075000000    -1.980000000     3.855000000
H     0.278000000    -2.522000000     3.449000000
O     0.831000000    -5.041000000     3.018000000
H    -0.026000000    -4.664000000     3.219000000
H     1.384000000    -4.785000000     3.756000000
O     3.787000000     1.423000000     3.976000000
H     4.287000000     0.768000000     3.489000000
H     2.903000000     1.368000000     3.613000000
O     3.485000000    -0.587000000    -1.779000000
H     3.113000000    -0.730000000    -2.650000000
H     3.901000000    -1.421000000    -1.557000000
O     0.068000000    -3.809000000     6.591000000
H     0.901000000    -3.839000000     6.120000000
H    -0.321000000    -2.972000000     6.335000000
O     4.657000000    -2.436000000    -4.791000000
H     4.296000000    -1.574000000    -4.998000000
H     5.604000000    -2.327000000    -4.879000000
O     2.100000000    -2.565000000     5.420000000
H     2.119000000    -1.787000000     4.862000000
H     2.875000000    -2.479000000     5.976000000
O    -1.759000000    -3.538000000    -4.323000000
H    -0.852000000    -3.310000000    -4.524000000
H    -1.720000000    -3.930000000    -3.451000000
O     6.194000000    -4.084000000     2.681000000
H     5.861000000    -4.960000000     2.488000000
H     5.424000000    -3.517000000     2.625000000
O     2.235000000    -3.953000000    -2.146000000
H     1.563000000    -4.624000000    -2.265000000
H     2.323000000    -3.868000000    -1.197000000
O    -4.125000000    -2.716000000    -5.225000000
H    -4.726000000    -3.380000000    -4.887000000
H    -3.254000000    -3.042000000    -4.995000000
O     3.465000000     2.291000000    -2.456000000
H     3.470000000     1.334000000    -2.454000000
H     4.145000000     2.532000000    -3.085000000
O     5.652000000    -0.790000000     3.280000000
H     5.054000000    -1.458000000     2.944000000
H     5.894000000    -1.102000000     4.152000000
O    -4.140000000    -0.203000000    -6.244000000
H    -5.095000000    -0.144000000    -6.225000000
H    -3.949000000    -1.093000000    -5.949000000
