144
-2807.87400
O     0.511000000    -5.362000000    -6.432000000
H     0.907000000    -4.879000000    -5.707000000
H     1.253000000    -5.745000000    -6.899000000
O    -2.704000000     4.502000000     3.543000000
H    -3.038000000     3.647000000     3.271000000
H    -2.610000000     4.431000000     4.493000000
O     0.177000000    -2.922000000     1.345000000
H     0.897000000    -2.350000000     1.079000000
H    -0.064000000    -2.614000000     2.218000000
O     5.283000000     2.226000000    -0.481000000
H     5.433000000     1.297000000    -0.659000000
H     4.628000000     2.491000000    -1.126000000
O    -2.023000000     0.706000000     6.033000000
H    -2.901000000     0.383000000     6.233000000
H    -1.510000000     0.505000000     6.816000000
O     1.114000000     3.586000000     6.548000000
H     1.466000000     3.179000000     7.340000000
H     1.551000000     3.129000000     5.829000000
O    -1.583000000     1.608000000    -4.628000000
H    -1.313000000     1.533000000    -5.543000000
H    -2.512000000     1.377000000    -4.633000000
O     0.752000000    -1.576000000    -7.268000000
H     0.604000000    -2.168000000    -8.005000000
H     1.031000000    -2.148000000    -6.553000000
O    -0.079000000     1.145000000    -6.832000000
H    -0.205000000     1.358000000    -7.756000000
H     0.282000000     0.258000000    -6.837000000
O     6.637000000    -3.923000000    -0.807000000
H     7.361000000    -4.521000000    -0.992000000
H     5.960000000    -4.164000000    -1.440000000
O     5.280000000    -0.322000000    -0.994000000
H     5.872000000    -0.978000000    -0.626000000
H     4.475000000    -0.804000000    -1.181000000
O    -3.204000000    -3.776000000    -1.094000000
H    -3.736000000    -3.263000000    -0.487000000
H    -3.074000000    -3.199000000    -1.846000000
O     2.308000000    -3.721000000    -4.689000000
H     2.072000000    -2.986000000    -4.124000000
H     2.967000000    -4.204000000    -4.190000000
O    -5.004000000     1.654000000     2.433000000
H    -4.737000000     0.742000000     2.318000000
H    -5.794000000     1.742000000     1.899000000
O    -0.540000000    -3.576000000    -4.095000000
H     0.171000000    -3.016000000    -3.782000000
H    -0.322000000    -4.447000000    -3.765000000
O    -0.017000000    -1.493000000     4.137000000
H     0.042000000    -1.959000000     4.971000000
H    -0.044000000    -0.568000000     4.380000000
O     3.166000000    -6.221000000    -2.476000000
H     3.178000000    -6.448000000    -3.406000000
H     3.659000000    -5.402000000    -2.424000000
O    -3.793000000    -1.137000000     1.982000000
H    -2.964000000    -1.595000000     2.120000000
H    -4.392000000    -1.529000000     2.618000000
O    -4.422000000    -3.551000000    -5.452000000
H    -3.680000000    -4.126000000    -5.636000000
H    -4.097000000    -2.944000000    -4.788000000
O     1.043000000     1.505000000    -3.457000000
H     0.146000000     1.515000000    -3.790000000
H     1.372000000     0.634000000    -3.681000000
O     2.241000000     3.532000000     0.489000000
H     1.798000000     4.031000000     1.175000000
H     2.928000000     3.050000000     0.949000000
O     4.577000000     3.291000000     2.409000000
H     5.413000000     3.733000000     2.260000000
H     4.697000000     2.417000000     2.038000000
O    -4.970000000    -1.718000000    -0.428000000
H    -5.011000000    -0.951000000    -1.000000000
H    -4.576000000    -1.392000000     0.381000000
O     3.586000000    -2.966000000    -7.031000000
H     3.886000000    -2.097000000    -6.763000000
H     2.920000000    -3.200000000    -6.385000000
O     2.857000000    -4.909000000     0.347000000
H     3.379000000    -5.627000000    -0.010000000
H     2.008000000    -4.990000000    -0.090000000
O    -4.550000000     0.659000000    -1.687000000
H    -4.453000000     0.691000000    -2.639000000
H    -3.971000000     1.350000000    -1.365000000
O    -7.295000000    -1.090000000    -2.091000000
H    -6.343000000    -0.990000000    -2.119000000
H    -7.438000000    -2.034000000    -2.161000000
O     3.993000000     0.194000000     2.335000000
H     4.813000000    -0.295000000     2.409000000
H     3.482000000    -0.293000000     1.689000000
O    -2.731000000    -2.963000000     4.169000000
H    -3.212000000    -2.714000000     4.959000000
H    -1.906000000    -2.482000000     4.230000000
O    -4.479000000     4.011000000     1.195000000
H    -4.067000000     3.590000000     0.440000000
H    -4.721000000     3.285000000     1.770000000
O     3.078000000     2.802000000    -2.120000000
H     2.322000000     2.610000000    -2.675000000
H     2.706000000     3.227000000    -1.347000000
O     3.069000000    -2.411000000     0.629000000
H     2.867000000    -2.247000000    -0.292000000
H     3.126000000    -3.364000000     0.696000000
O    -1.447000000    -4.926000000     0.744000000
H    -0.727000000    -4.301000000     0.663000000
H    -2.167000000    -4.527000000     0.255000000
O     1.930000000     1.941000000     4.313000000
H     1.911000000     1.089000000     4.750000000
H     2.528000000     1.818000000     3.575000000
O    -0.464000000     6.438000000     2.919000000
H    -1.216000000     6.207000000     3.465000000
H     0.107000000     5.671000000     2.961000000
O     4.427000000    -4.036000000    -2.575000000
H     5.031000000    -3.720000000    -3.247000000
H     3.898000000    -3.271000000    -2.350000000
O    -1.992000000     3.654000000     6.011000000
H    -1.868000000     2.712000000     5.895000000
H    -1.363000000     3.897000000     6.691000000
O    -5.745000000     3.574000000     4.523000000
H    -5.578000000     2.683000000     4.215000000
H    -6.471000000     3.882000000     3.981000000
O     3.890000000    -0.728000000    -4.513000000
H     3.199000000    -0.800000000    -3.854000000
H     4.309000000    -1.588000000    -4.515000000
O     6.071000000    -2.929000000    -4.542000000
H     6.114000000    -3.710000000    -5.094000000
H     6.953000000    -2.841000000    -4.181000000
O     0.345000000    -5.930000000    -2.887000000
H     1.268000000    -6.173000000    -2.814000000
H    -0.091000000    -6.438000000    -2.203000000
O     4.015000000    -1.314000000     4.939000000
H     3.797000000    -0.382000000     4.965000000
H     3.869000000    -1.619000000     5.834000000
O     1.453000000     4.318000000     3.043000000
H     2.134000000     4.986000000     3.128000000
H     1.683000000     3.656000000     3.695000000
O    -3.003000000    -1.972000000    -3.822000000
H    -2.214000000    -2.510000000    -3.897000000
H    -2.674000000    -1.085000000    -3.674000000
O     5.250000000     1.944000000    -4.032000000
H     4.920000000     1.046000000    -4.079000000
H     4.532000000     2.443000000    -3.642000000
O    -0.256000000     3.256000000    -1.425000000
H    -0.161000000     4.034000000    -0.875000000
H     0.345000000     2.617000000    -1.042000000
O    -1.192000000     5.661000000     0.304000000
H    -1.004000000     5.872000000     1.218000000
H    -1.980000000     5.118000000     0.341000000
O    -3.197000000     3.241000000    -1.207000000
H    -2.265000000     3.176000000    -1.414000000
H    -3.631000000     3.262000000    -2.060000000
