144
-2812.04849
O    -1.329000000    -0.113000000    -6.258000000
H    -1.509000000    -0.916000000    -5.769000000
H    -0.636000000    -0.356000000    -6.872000000
O     0.689000000    -4.507000000    -2.719000000
H     0.182000000    -3.854000000    -3.202000000
H     1.087000000    -5.052000000    -3.398000000
O    -0.624000000     5.071000000     4.651000000
H    -1.090000000     4.600000000     3.960000000
H    -0.687000000     4.499000000     5.416000000
O     1.399000000    -4.458000000     2.102000000
H     2.129000000    -3.931000000     1.777000000
H     0.855000000    -3.839000000     2.590000000
O     2.559000000     1.515000000     6.052000000
H     1.859000000     2.004000000     6.483000000
H     2.154000000     0.683000000     5.806000000
O     6.164000000     2.062000000    -0.175000000
H     6.804000000     1.354000000    -0.240000000
H     5.316000000     1.630000000    -0.275000000
O    -0.195000000     0.868000000     6.482000000
H    -1.121000000     0.629000000     6.454000000
H     0.098000000     0.592000000     7.351000000
O     0.591000000     1.102000000    -4.351000000
H    -0.254000000     0.969000000    -4.781000000
H     0.936000000     1.903000000    -4.745000000
O     2.173000000    -1.400000000     6.055000000
H     2.082000000    -0.953000000     6.896000000
H     2.106000000    -2.331000000     6.270000000
O     6.121000000    -4.206000000     0.309000000
H     6.624000000    -4.494000000    -0.453000000
H     6.273000000    -4.884000000     0.967000000
O     6.002000000    -1.102000000     0.577000000
H     6.260000000    -1.790000000    -0.036000000
H     5.076000000    -0.948000000     0.388000000
O    -5.261000000    -1.512000000    -0.350000000
H    -5.115000000    -0.567000000    -0.406000000
H    -4.424000000    -1.866000000    -0.048000000
O     2.523000000    -2.691000000    -4.491000000
H     2.828000000    -2.524000000    -3.600000000
H     1.578000000    -2.818000000    -4.401000000
O    -5.070000000     2.195000000     2.660000000
H    -5.427000000     1.317000000     2.532000000
H    -5.622000000     2.760000000     2.120000000
O    -2.703000000    -2.962000000     0.134000000
H    -2.538000000    -2.398000000     0.890000000
H    -1.870000000    -3.408000000    -0.018000000
O     0.252000000    -2.726000000     4.266000000
H    -0.280000000    -3.069000000     4.983000000
H     0.872000000    -2.133000000     4.690000000
O     2.812000000    -6.517000000    -1.898000000
H     2.401000000    -6.471000000    -2.761000000
H     3.031000000    -5.609000000    -1.688000000
O    -7.049000000    -0.001000000     2.998000000
H    -7.009000000    -0.956000000     2.955000000
H    -7.864000000     0.225000000     2.549000000
O     3.108000000     1.552000000    -2.485000000
H     2.832000000     0.655000000    -2.676000000
H     4.045000000     1.561000000    -2.680000000
O     2.205000000     5.164000000     0.557000000
H     3.025000000     4.677000000     0.633000000
H     1.539000000     4.492000000     0.412000000
O    -5.607000000     1.195000000    -0.893000000
H    -5.228000000     1.964000000    -1.319000000
H    -6.380000000     0.987000000    -1.418000000
O     3.375000000    -1.700000000    -6.850000000
H     4.282000000    -1.758000000    -6.549000000
H     2.851000000    -1.852000000    -6.063000000
O    -3.431000000    -1.314000000     5.064000000
H    -3.952000000    -0.641000000     5.503000000
H    -3.401000000    -2.039000000     5.689000000
O    -3.961000000     3.550000000    -1.431000000
H    -3.612000000     4.037000000    -2.178000000
H    -3.301000000     3.656000000    -0.747000000
O    -5.308000000    -3.227000000     2.556000000
H    -6.080000000    -2.948000000     3.047000000
H    -4.590000000    -2.711000000     2.924000000
O    -5.139000000    -1.498000000    -3.317000000
H    -4.676000000    -0.700000000    -3.572000000
H    -5.193000000    -1.449000000    -2.363000000
O     5.917000000     0.553000000     2.876000000
H     6.738000000     1.042000000     2.940000000
H     6.154000000    -0.253000000     2.417000000
O     4.847000000    -2.415000000     4.605000000
H     4.355000000    -2.798000000     3.878000000
H     4.371000000    -1.612000000     4.818000000
O    -2.027000000    -1.792000000     2.671000000
H    -2.570000000    -1.566000000     3.426000000
H    -1.138000000    -1.844000000     3.022000000
O    -2.405000000     4.206000000     2.802000000
H    -2.167000000     4.240000000     1.875000000
H    -3.324000000     3.939000000     2.804000000
O     3.210000000     2.537000000     0.797000000
H     2.816000000     1.760000000     0.401000000
H     3.368000000     2.288000000     1.707000000
O    -4.453000000     1.355000000    -3.977000000
H    -4.121000000     2.161000000    -3.581000000
H    -4.775000000     1.625000000    -4.836000000
O     4.144000000    -3.059000000     1.963000000
H     4.911000000    -3.376000000     1.485000000
H     3.984000000    -2.185000000     1.606000000
O     3.598000000     1.769000000     3.491000000
H     3.199000000     1.592000000     4.343000000
H     4.486000000     1.420000000     3.565000000
O     3.837000000    -4.182000000    -1.239000000
H     3.414000000    -3.337000000    -1.395000000
H     4.509000000    -3.996000000    -0.584000000
O    -0.456000000    -2.738000000    -4.484000000
H    -0.907000000    -2.768000000    -5.327000000
H    -1.143000000    -2.529000000    -3.851000000
O    -2.326000000     1.440000000     4.355000000
H    -2.659000000     1.991000000     3.647000000
H    -2.198000000     0.582000000     3.951000000
O     4.949000000    -0.996000000    -3.416000000
H     4.178000000    -1.149000000    -2.871000000
H     4.884000000    -1.648000000    -4.114000000
O     5.485000000    -2.922000000    -5.445000000
H     4.997000000    -3.720000000    -5.651000000
H     6.295000000    -3.234000000    -5.041000000
O    -0.163000000    -3.811000000    -0.033000000
H    -0.088000000    -4.129000000    -0.933000000
H     0.659000000    -4.073000000     0.383000000
O     7.883000000    -0.132000000    -2.903000000
H     7.938000000    -0.011000000    -3.851000000
H     7.250000000    -0.840000000    -2.788000000
O    -1.858000000    -2.446000000    -2.386000000
H    -1.437000000    -1.592000000    -2.292000000
H    -2.355000000    -2.560000000    -1.576000000
O     5.025000000     1.438000000    -4.537000000
H     4.886000000     0.550000000    -4.209000000
H     4.267000000     1.608000000    -5.097000000
O    -5.819000000     2.411000000     5.433000000
H    -5.970000000     3.345000000     5.287000000
H    -5.552000000     2.076000000     4.578000000
O     0.339000000     2.922000000    -1.140000000
H     0.909000000     2.290000000    -0.701000000
H     0.172000000     2.537000000    -2.001000000
O     6.335000000    -5.041000000    -2.263000000
H     5.409000000    -4.800000000    -2.238000000
H     6.338000000    -5.992000000    -2.160000000
O    -5.854000000     4.010000000     0.818000000
H    -6.119000000     4.893000000     0.560000000
H    -5.433000000     3.649000000     0.038000000
O    -1.674000000     4.610000000     0.110000000
H    -0.937000000     4.139000000    -0.280000000
H    -1.718000000     5.432000000    -0.378000000
