144
-2816.78762
O     0.018000000     3.220000000    -5.082000000
H    -0.171000000     3.507000000    -4.188000000
H     0.899000000     3.550000000    -5.258000000
O     1.877000000    -1.409000000    -4.005000000
H     1.411000000    -1.903000000    -4.679000000
H     1.737000000    -1.910000000    -3.201000000
O     1.025000000    -7.859000000    -2.780000000
H     0.372000000    -8.461000000    -2.424000000
H     0.657000000    -6.988000000    -2.626000000
O     4.971000000     0.407000000    -0.638000000
H     4.159000000     0.625000000    -1.097000000
H     5.060000000    -0.540000000    -0.747000000
O    -4.986000000     4.834000000    -0.549000000
H    -5.495000000     4.967000000    -1.349000000
H    -5.457000000     4.148000000    -0.077000000
O    -2.418000000    -4.629000000    -3.728000000
H    -2.213000000    -3.770000000    -4.098000000
H    -1.585000000    -5.100000000    -3.739000000
O     2.689000000     0.740000000    -2.187000000
H     2.345000000    -0.064000000    -2.576000000
H     1.910000000     1.239000000    -1.940000000
O     2.854000000    -0.392000000     5.021000000
H     2.158000000    -0.902000000     4.606000000
H     2.461000000     0.466000000     5.179000000
O     3.723000000     5.830000000    -0.581000000
H     4.581000000     5.655000000    -0.966000000
H     3.735000000     5.362000000     0.254000000
O    -3.894000000     7.545000000    -0.444000000
H    -3.243000000     7.304000000     0.216000000
H    -4.408000000     6.748000000    -0.575000000
O    -1.136000000    -0.578000000     5.822000000
H    -0.265000000    -0.778000000     6.165000000
H    -1.724000000    -0.724000000     6.562000000
O    -5.085000000    -0.478000000     0.425000000
H    -4.765000000     0.112000000     1.107000000
H    -4.299000000    -0.742000000    -0.052000000
O     3.952000000    -4.297000000     3.205000000
H     4.828000000    -3.969000000     3.411000000
H     3.765000000    -3.950000000     2.333000000
O     1.941000000     3.775000000     3.057000000
H     2.665000000     4.310000000     3.381000000
H     2.333000000     3.225000000     2.379000000
O    -1.859000000     5.457000000     3.844000000
H    -1.643000000     5.993000000     3.081000000
H    -1.069000000     5.479000000     4.384000000
O     3.141000000    -3.880000000     5.895000000
H     2.677000000    -4.676000000     6.153000000
H     3.427000000    -4.050000000     4.997000000
O     0.284000000    -5.378000000    -3.349000000
H     0.886000000    -5.548000000    -4.074000000
H     0.647000000    -4.606000000    -2.913000000
O     2.485000000     1.899000000     0.968000000
H     1.641000000     1.460000000     0.869000000
H     3.119000000     1.185000000     1.039000000
O    -0.921000000     6.630000000    -3.690000000
H    -0.999000000     5.902000000    -3.073000000
H     0.022000000     6.726000000    -3.828000000
O     4.784000000     1.524000000    -3.746000000
H     3.921000000     1.505000000    -3.331000000
H     4.898000000     0.643000000    -4.103000000
O    -4.232000000     0.511000000     2.748000000
H    -3.519000000    -0.114000000     2.882000000
H    -4.005000000     1.257000000     3.303000000
O     1.979000000    -5.709000000    -5.516000000
H     1.565000000    -6.322000000    -6.125000000
H     2.842000000    -6.086000000    -5.346000000
O    -0.773000000    -4.386000000     3.464000000
H    -1.541000000    -4.704000000     2.989000000
H    -0.031000000    -4.631000000     2.911000000
O    -3.145000000     3.201000000     4.088000000
H    -2.314000000     2.911000000     4.464000000
H    -2.964000000     4.082000000     3.758000000
O    -3.464000000     2.248000000    -1.891000000
H    -3.837000000     2.182000000    -2.770000000
H    -3.836000000     3.054000000    -1.533000000
O    -5.570000000     2.793000000     1.288000000
H    -5.926000000     1.911000000     1.401000000
H    -4.649000000     2.713000000     1.539000000
O    -3.550000000    -3.351000000    -0.835000000
H    -2.743000000    -3.756000000    -1.152000000
H    -3.390000000    -2.410000000    -0.907000000
O    -3.351000000    -0.692000000    -1.982000000
H    -3.385000000    -0.842000000    -2.927000000
H    -3.111000000     0.230000000    -1.894000000
O     1.535000000    -5.428000000     1.986000000
H     2.290000000    -5.038000000     2.425000000
H     1.286000000    -4.786000000     1.321000000
O    -2.237000000    -1.344000000     3.507000000
H    -1.784000000    -0.975000000     4.266000000
H    -1.635000000    -2.004000000     3.166000000
O     4.153000000    -3.910000000    -3.161000000
H     4.347000000    -4.842000000    -3.064000000
H     3.244000000    -3.823000000    -2.874000000
O     0.666000000    -3.095000000    -5.846000000
H     0.357000000    -2.902000000    -6.732000000
H     1.234000000    -3.857000000    -5.952000000
O     2.758000000    -0.352000000    -6.607000000
H     2.603000000    -0.658000000    -5.714000000
H     2.011000000     0.215000000    -6.799000000
O    -0.160000000     4.871000000    -1.853000000
H    -0.777000000     4.739000000    -1.133000000
H     0.548000000     4.252000000    -1.677000000
O     1.404000000    -8.048000000     0.980000000
H     1.363000000    -7.095000000     1.055000000
H     0.651000000    -8.278000000     0.435000000
O    -1.088000000     2.044000000     5.306000000
H    -1.051000000     1.088000000     5.335000000
H    -0.272000000     2.328000000     5.719000000
O     3.786000000    -3.160000000     0.693000000
H     2.945000000    -3.132000000     0.236000000
H     4.382000000    -2.670000000     0.126000000
O     1.735000000     2.773000000     6.464000000
H     2.297000000     2.834000000     5.691000000
H     2.255000000     3.155000000     7.170000000
O     5.168000000    -2.260000000    -1.529000000
H     4.669000000    -2.764000000    -2.172000000
H     6.066000000    -2.272000000    -1.861000000
O    -1.637000000    -2.088000000    -4.819000000
H    -1.960000000    -1.410000000    -5.412000000
H    -0.849000000    -2.425000000    -5.247000000
O    -3.190000000    -4.630000000     2.084000000
H    -3.076000000    -4.024000000     1.353000000
H    -3.399000000    -5.468000000     1.670000000
O     1.154000000    -2.506000000     4.923000000
H     0.644000000    -3.199000000     4.504000000
H     1.958000000    -2.939000000     5.209000000
O     4.354000000    -3.042000000    -5.941000000
H     4.193000000    -3.907000000    -5.563000000
H     4.671000000    -2.515000000    -5.208000000
O     4.179000000    -6.626000000    -3.051000000
H     3.811000000    -6.226000000    -2.263000000
H     3.574000000    -7.337000000    -3.263000000
O     1.921000000     3.478000000    -1.276000000
H     2.619000000     4.042000000    -1.609000000
H     2.287000000     3.089000000    -0.481000000
O    -1.261000000     7.543000000     1.863000000
H    -0.869000000     8.416000000     1.874000000
H    -0.670000000     7.022000000     1.319000000
O     3.302000000    -5.414000000    -0.962000000
H     2.386000000    -5.194000000    -0.791000000
H     3.753000000    -5.220000000    -0.141000000
O     0.871000000     6.670000000     0.312000000
H     1.368000000     5.907000000     0.019000000
H     0.793000000     7.219000000    -0.469000000
