144
-2794.63594
O    -2.857000000     1.276000000     2.669000000
H    -2.254000000     1.831000000     2.176000000
H    -2.414000000     0.430000000     2.725000000
O     2.090000000     3.532000000     3.110000000
H     2.082000000     4.444000000     3.403000000
H     3.010000000     3.350000000     2.918000000
O    -0.927000000     2.774000000     4.712000000
H    -0.936000000     3.647000000     4.318000000
H    -0.304000000     2.278000000     4.181000000
O     5.820000000    -4.090000000    -4.289000000
H     5.623000000    -3.311000000    -3.768000000
H     4.963000000    -4.458000000    -4.502000000
O     2.897000000     1.058000000    -2.415000000
H     3.823000000     0.925000000    -2.619000000
H     2.641000000     0.267000000    -1.941000000
O     0.549000000     6.485000000    -2.664000000
H     1.299000000     5.975000000    -2.358000000
H    -0.154000000     5.842000000    -2.758000000
O    -1.249000000     0.668000000    -4.047000000
H    -2.093000000     0.957000000    -4.396000000
H    -0.907000000     1.433000000    -3.585000000
O     3.829000000    -7.541000000     0.571000000
H     3.007000000    -7.694000000     0.107000000
H     3.780000000    -6.628000000     0.852000000
O    -0.184000000     7.104000000    -0.047000000
H    -0.035000000     6.884000000    -0.966000000
H     0.239000000     6.397000000     0.440000000
O     3.999000000     2.363000000     1.337000000
H     4.032000000     1.587000000     1.896000000
H     4.754000000     2.271000000     0.755000000
O     2.936000000    -5.936000000     3.864000000
H     3.046000000    -6.885000000     3.932000000
H     3.310000000    -5.712000000     3.013000000
O     1.003000000    -2.755000000     2.987000000
H     1.434000000    -3.106000000     2.208000000
H     0.222000000    -2.316000000     2.650000000
O    -5.953000000     1.329000000     1.012000000
H    -5.509000000     2.134000000     0.748000000
H    -6.001000000     1.383000000     1.966000000
O    -3.885000000     3.884000000    -1.666000000
H    -3.823000000     3.834000000    -0.712000000
H    -4.090000000     4.802000000    -1.845000000
O    -7.119000000     1.280000000    -2.112000000
H    -7.660000000     0.825000000    -1.466000000
H    -6.430000000     1.698000000    -1.595000000
O    -0.828000000     5.229000000     3.443000000
H    -1.490000000     5.336000000     2.759000000
H    -0.031000000     5.599000000     3.063000000
O     0.853000000     1.164000000     3.139000000
H     1.178000000     0.548000000     2.482000000
H     1.438000000     1.918000000     3.069000000
O    -0.718000000    -5.248000000     1.312000000
H    -0.705000000    -5.472000000     2.243000000
H     0.030000000    -4.662000000     1.197000000
O     2.998000000     5.642000000    -1.687000000
H     3.422000000     5.796000000    -2.532000000
H     3.557000000     6.091000000    -1.053000000
O    -2.997000000    -4.525000000    -2.061000000
H    -3.059000000    -4.419000000    -1.112000000
H    -2.734000000    -3.662000000    -2.381000000
O     1.133000000    -0.652000000    -4.452000000
H     1.152000000    -0.855000000    -3.517000000
H     0.275000000    -0.252000000    -4.593000000
O     4.411000000    -2.110000000    -2.876000000
H     3.796000000    -1.876000000    -2.181000000
H     4.288000000    -1.433000000    -3.542000000
O    -5.170000000     1.286000000     3.979000000
H    -5.057000000     1.953000000     4.657000000
H    -4.385000000     1.360000000     3.437000000
O    -4.536000000     3.698000000     0.978000000
H    -5.381000000     4.128000000     0.850000000
H    -3.950000000     4.401000000     1.257000000
O    -4.633000000    -1.161000000     1.140000000
H    -4.663000000    -1.693000000     0.345000000
H    -5.163000000    -0.391000000     0.933000000
O    -2.870000000    -1.804000000    -3.130000000
H    -2.301000000    -1.082000000    -3.399000000
H    -3.334000000    -2.053000000    -3.930000000
O    -6.917000000    -2.747000000    -0.093000000
H    -6.300000000    -2.334000000    -0.697000000
H    -6.373000000    -3.055000000     0.632000000
O     1.341000000     4.547000000     0.470000000
H     1.726000000     4.294000000    -0.368000000
H     1.824000000     4.038000000     1.120000000
O     5.071000000     0.159000000     2.766000000
H     5.981000000     0.456000000     2.761000000
H     5.082000000    -0.656000000     2.263000000
O     1.300000000    -7.798000000    -0.536000000
H     0.620000000    -7.263000000    -0.946000000
H     1.018000000    -7.888000000     0.374000000
O    -3.543000000    -4.089000000     0.524000000
H    -4.395000000    -4.493000000     0.690000000
H    -3.134000000    -4.030000000     1.387000000
O     4.308000000     5.293000000     1.460000000
H     3.421000000     5.606000000     1.285000000
H     4.258000000     4.346000000     1.329000000
O    -0.408000000    -5.913000000    -1.439000000
H    -1.186000000    -5.593000000    -1.896000000
H    -0.342000000    -5.358000000    -0.662000000
O    -1.293000000     4.629000000    -2.887000000
H    -1.021000000     3.788000000    -3.253000000
H    -2.148000000     4.453000000    -2.493000000
O    -5.551000000    -1.400000000     3.771000000
H    -5.535000000    -0.443000000     3.790000000
H    -5.367000000    -1.625000000     2.860000000
O     2.337000000    -3.573000000     4.998000000
H     1.747000000    -3.163000000     4.365000000
H     2.371000000    -4.492000000     4.733000000
O     6.661000000    -1.231000000    -0.730000000
H     6.261000000    -0.983000000    -1.564000000
H     7.486000000    -0.747000000    -0.707000000
O     4.860000000    -2.034000000     1.091000000
H     4.069000000    -2.328000000     0.639000000
H     5.491000000    -1.875000000     0.389000000
O    -5.134000000    -1.552000000    -1.601000000
H    -4.276000000    -1.706000000    -1.996000000
H    -5.749000000    -1.612000000    -2.332000000
O    -1.461000000    -1.404000000     2.601000000
H    -1.709000000    -1.353000000     1.678000000
H    -2.241000000    -1.743000000     3.040000000
O     5.633000000    -3.891000000    -0.795000000
H     5.162000000    -3.317000000    -1.399000000
H     6.382000000    -3.370000000    -0.505000000
O     5.849000000    -3.308000000     3.240000000
H     5.540000000    -2.774000000     3.972000000
H     5.309000000    -3.033000000     2.499000000
O     3.442000000    -4.923000000     1.173000000
H     4.073000000    -4.329000000     0.767000000
H     2.600000000    -4.674000000     0.792000000
O     6.016000000    -6.678000000    -0.760000000
H     5.870000000    -5.734000000    -0.703000000
H     5.310000000    -7.062000000    -0.240000000
O     0.741000000     2.616000000    -3.035000000
H     1.001000000     1.859000000    -2.510000000
H     1.548000000     3.120000000    -3.144000000
O    -2.671000000     6.052000000     1.676000000
H    -3.464000000     6.589000000     1.673000000
H    -2.212000000     6.299000000     0.873000000
O    -1.712000000    -0.258000000     5.134000000
H    -1.651000000     0.691000000     5.025000000
H    -1.410000000    -0.615000000     4.299000000
O     2.404000000    -5.530000000    -2.705000000
H     1.744000000    -6.154000000    -2.407000000
H     2.738000000    -5.131000000    -1.902000000
