144
-2782.29395
O    -0.620000000     1.771000000     2.744000000
H    -1.531000000     1.477000000     2.773000000
H    -0.637000000     2.547000000     2.185000000
O    -2.881000000     4.571000000    -4.286000000
H    -3.697000000     4.476000000    -4.777000000
H    -2.471000000     5.355000000    -4.651000000
O     5.787000000     2.932000000    -2.316000000
H     5.991000000     2.558000000    -1.459000000
H     6.396000000     2.503000000    -2.916000000
O    -1.253000000     2.419000000    -3.404000000
H    -1.699000000     2.904000000    -4.098000000
H    -1.926000000     2.281000000    -2.737000000
O     2.707000000    -6.252000000     1.846000000
H     2.482000000    -6.901000000     1.180000000
H     1.865000000    -5.985000000     2.215000000
O     0.254000000     5.070000000    -4.737000000
H     0.060000000     4.408000000    -4.074000000
H    -0.471000000     5.005000000    -5.359000000
O    -2.634000000     5.925000000     1.452000000
H    -2.742000000     6.713000000     0.920000000
H    -3.420000000     5.894000000     1.997000000
O     3.606000000     3.690000000     3.026000000
H     4.118000000     2.910000000     2.812000000
H     3.537000000     4.165000000     2.198000000
O     4.534000000    -4.455000000     5.511000000
H     4.324000000    -4.010000000     4.690000000
H     3.820000000    -5.079000000     5.635000000
O     0.328000000    -0.696000000     3.370000000
H     1.277000000    -0.573000000     3.340000000
H    -0.026000000     0.054000000     2.893000000
O    -5.127000000     4.271000000    -0.242000000
H    -5.497000000     4.817000000    -0.936000000
H    -4.186000000     4.263000000    -0.419000000
O    -2.114000000     5.081000000    -1.582000000
H    -2.429000000     5.980000000    -1.490000000
H    -2.449000000     4.795000000    -2.432000000
O     7.386000000     0.962000000     2.387000000
H     6.605000000     0.874000000     1.841000000
H     7.431000000     1.896000000     2.591000000
O     0.385000000    -4.331000000     2.251000000
H     0.182000000    -3.976000000     3.116000000
H     1.281000000    -4.040000000     2.077000000
O     2.844000000    -4.342000000    -3.886000000
H     3.336000000    -5.147000000    -3.728000000
H     2.557000000    -4.062000000    -3.017000000
O    -2.549000000    -2.480000000    -2.275000000
H    -2.818000000    -2.810000000    -1.417000000
H    -3.301000000    -2.649000000    -2.843000000
O     0.661000000     0.163000000    -3.264000000
H     0.310000000    -0.343000000    -2.532000000
H    -0.045000000     0.764000000    -3.501000000
O    -1.710000000    -3.170000000    -4.716000000
H    -1.865000000    -2.429000000    -5.301000000
H    -1.648000000    -2.779000000    -3.844000000
O     4.798000000    -0.454000000    -1.873000000
H     4.400000000    -0.882000000    -1.116000000
H     4.127000000     0.156000000    -2.183000000
O     4.613000000     1.148000000     1.610000000
H     4.805000000     0.617000000     2.383000000
H     4.229000000     0.531000000     0.986000000
O    -5.326000000     2.009000000    -2.266000000
H    -6.124000000     1.513000000    -2.449000000
H    -5.493000000     2.428000000    -1.422000000
O    -6.519000000     4.204000000     2.065000000
H    -7.276000000     4.506000000     1.562000000
H    -5.798000000     4.206000000     1.436000000
O    -5.371000000    -1.735000000    -3.535000000
H    -6.116000000    -1.749000000    -4.136000000
H    -4.752000000    -1.123000000    -3.934000000
O    -7.447000000    -1.777000000     0.336000000
H    -6.662000000    -1.507000000    -0.140000000
H    -7.302000000    -1.472000000     1.232000000
O     3.546000000     4.996000000     0.560000000
H     3.212000000     4.363000000    -0.076000000
H     2.790000000     5.541000000     0.776000000
O     4.446000000    -0.092000000     4.011000000
H     4.032000000    -0.630000000     4.687000000
H     5.011000000     0.509000000     4.497000000
O    -3.056000000    -0.770000000    -5.479000000
H    -3.171000000     0.141000000    -5.210000000
H    -3.447000000    -0.813000000    -6.352000000
O    -3.361000000    -2.020000000     2.320000000
H    -3.990000000    -2.657000000     1.981000000
H    -2.917000000    -2.479000000     3.033000000
O     2.568000000     1.429000000    -4.929000000
H     2.134000000     0.838000000    -4.314000000
H     2.116000000     1.285000000    -5.760000000
O     7.498000000    -0.366000000    -1.441000000
H     6.569000000    -0.334000000    -1.668000000
H     7.681000000     0.494000000    -1.061000000
O    -1.347000000    -5.226000000     0.294000000
H    -1.504000000    -4.543000000    -0.358000000
H    -0.642000000    -4.879000000     0.840000000
O     1.713000000     5.883000000    -2.319000000
H     1.831000000     4.975000000    -2.040000000
H     0.847000000     5.898000000    -2.727000000
O    -6.387000000     0.185000000     2.495000000
H    -6.584000000     1.099000000     2.702000000
H    -5.448000000     0.099000000     2.659000000
O    -2.537000000    -5.866000000     3.086000000
H    -1.898000000    -5.156000000     3.139000000
H    -2.987000000    -5.722000000     2.254000000
O     7.177000000    -2.971000000    -0.682000000
H     7.315000000    -2.060000000    -0.942000000
H     8.000000000    -3.409000000    -0.900000000
O     6.119000000    -1.319000000     1.452000000
H     5.299000000    -1.271000000     0.961000000
H     6.678000000    -1.894000000     0.928000000
O    -5.294000000    -0.715000000    -0.857000000
H    -4.597000000    -0.236000000    -0.409000000
H    -5.078000000    -0.640000000    -1.786000000
O    -3.471000000     0.474000000     2.753000000
H    -3.230000000    -0.413000000     2.487000000
H    -3.617000000     0.410000000     3.697000000
O     4.731000000    -4.137000000    -0.565000000
H     4.104000000    -3.561000000    -0.129000000
H     5.523000000    -3.607000000    -0.653000000
O     7.672000000    -2.050000000     3.575000000
H     7.912000000    -1.315000000     4.139000000
H     6.892000000    -1.749000000     3.108000000
O    -4.509000000    -3.366000000    -0.622000000
H    -4.921000000    -3.512000000     0.229000000
H    -4.973000000    -2.612000000    -0.986000000
O    -3.885000000     1.771000000    -4.789000000
H    -4.512000000     2.472000000    -4.966000000
H    -4.053000000     1.523000000    -3.880000000
O     4.300000000    -3.107000000     2.883000000
H     4.755000000    -2.295000000     2.658000000
H     3.577000000    -3.157000000     2.258000000
O     5.367000000    -5.902000000     1.509000000
H     5.384000000    -5.182000000     0.879000000
H     4.441000000    -6.011000000     1.723000000
O     3.138000000     3.241000000    -2.090000000
H     4.071000000     3.035000000    -2.135000000
H     2.762000000     2.824000000    -2.865000000
O    -0.740000000     4.623000000     2.654000000
H    -1.486000000     4.989000000     2.180000000
H     0.013000000     5.125000000     2.342000000
O     1.710000000    -4.324000000    -1.207000000
H     1.350000000    -5.158000000    -0.906000000
H     2.202000000    -3.991000000    -0.457000000
O     0.626000000    -2.811000000     4.977000000
H    -0.181000000    -2.713000000     5.483000000
H     0.590000000    -2.106000000     4.330000000
