144
-2831.11160
O    -0.791000000     3.157000000     3.481000000
H    -1.456000000     2.758000000     4.043000000
H    -1.258000000     3.373000000     2.674000000
O     1.215000000     4.645000000     1.198000000
H     0.693000000     4.857000000     0.425000000
H     0.601000000     4.716000000     1.929000000
O     3.900000000    -5.030000000    -3.463000000
H     3.413000000    -5.854000000    -3.472000000
H     3.974000000    -4.805000000    -2.536000000
O     4.349000000    -1.786000000    -4.908000000
H     4.116000000    -2.713000000    -4.961000000
H     5.019000000    -1.669000000    -5.581000000
O    -2.483000000     4.327000000    -2.078000000
H    -2.058000000     4.763000000    -1.339000000
H    -1.835000000     4.365000000    -2.782000000
O    -2.884000000     1.830000000    -2.852000000
H    -3.473000000     2.074000000    -3.565000000
H    -2.764000000     2.637000000    -2.352000000
O     0.667000000    -4.576000000    -1.589000000
H     0.450000000    -5.460000000    -1.294000000
H     1.156000000    -4.193000000    -0.861000000
O     0.968000000    -6.887000000     0.824000000
H     0.796000000    -6.587000000     1.717000000
H     0.130000000    -6.787000000     0.372000000
O    -0.973000000     5.841000000    -0.520000000
H    -1.699000000     6.460000000    -0.605000000
H    -0.242000000     6.267000000    -0.967000000
O     3.956000000     2.572000000     2.776000000
H     3.499000000     3.030000000     2.071000000
H     3.729000000     1.650000000     2.650000000
O     2.605000000    -1.223000000     4.203000000
H     3.080000000    -0.655000000     3.597000000
H     1.901000000    -0.673000000     4.547000000
O    -5.323000000     4.860000000    -3.607000000
H    -4.619000000     5.189000000    -3.047000000
H    -5.698000000     5.646000000    -4.006000000
O    -4.978000000     4.294000000     0.341000000
H    -5.014000000     3.498000000    -0.189000000
H    -5.895000000     4.524000000     0.492000000
O     1.449000000     1.458000000     4.449000000
H     0.992000000     2.077000000     3.879000000
H     1.867000000     2.006000000     5.112000000
O     2.100000000    -3.590000000     2.532000000
H     2.187000000    -2.707000000     2.891000000
H     2.074000000    -3.463000000     1.584000000
O    -2.268000000     6.196000000     4.032000000
H    -1.967000000     6.963000000     3.544000000
H    -2.359000000     5.511000000     3.370000000
O     6.762000000     2.161000000     1.820000000
H     5.821000000     2.213000000     1.653000000
H     7.136000000     1.856000000     0.993000000
O     0.512000000    -2.552000000    -3.483000000
H    -0.041000000    -1.805000000    -3.253000000
H     0.586000000    -3.054000000    -2.672000000
O     0.376000000    -5.683000000     3.159000000
H     0.852000000    -4.885000000     2.931000000
H    -0.395000000    -5.375000000     3.635000000
O    -7.219000000     1.549000000    -0.400000000
H    -7.923000000     1.623000000    -1.043000000
H    -6.942000000     0.634000000    -0.453000000
O    -0.414000000     0.294000000    -2.981000000
H    -1.090000000     0.972000000    -3.002000000
H     0.166000000     0.556000000    -2.266000000
O     3.926000000     0.005000000    -2.655000000
H     3.865000000    -0.575000000    -1.896000000
H     4.136000000    -0.577000000    -3.385000000
O     4.060000000    -0.128000000     1.999000000
H     5.009000000    -0.240000000     1.936000000
H     3.734000000    -0.356000000     1.129000000
O    -1.159000000    -6.557000000    -0.676000000
H    -1.571000000    -5.697000000    -0.585000000
H    -1.826000000    -7.099000000    -1.096000000
O     5.572000000     2.055000000    -2.221000000
H     5.021000000     1.283000000    -2.345000000
H     6.322000000     1.736000000    -1.719000000
O     4.864000000     3.803000000    -0.028000000
H     4.727000000     3.248000000    -0.795000000
H     5.790000000     4.041000000    -0.066000000
O     3.295000000     5.986000000     0.528000000
H     2.612000000     5.485000000     0.974000000
H     3.804000000     5.328000000     0.055000000
O    -2.523000000    -4.251000000    -0.526000000
H    -2.027000000    -3.523000000    -0.899000000
H    -3.322000000    -4.290000000    -1.051000000
O    -5.573000000    -1.423000000    -0.236000000
H    -6.232000000    -2.062000000    -0.507000000
H    -5.058000000    -1.261000000    -1.026000000
O     8.862000000    -2.041000000     0.119000000
H     9.068000000    -1.309000000     0.699000000
H     7.978000000    -1.855000000    -0.198000000
O     1.315000000     4.079000000    -3.877000000
H     1.938000000     3.355000000    -3.805000000
H     1.019000000     4.050000000    -4.787000000
O    -0.594000000    -0.126000000     5.858000000
H     0.319000000     0.157000000     5.905000000
H    -0.802000000    -0.109000000     4.924000000
O    -2.574000000     1.850000000     5.026000000
H    -3.459000000     1.619000000     5.309000000
H    -2.311000000     1.131000000     4.452000000
O     7.244000000    -4.976000000    -1.083000000
H     6.364000000    -4.599000000    -1.100000000
H     7.100000000    -5.919000000    -1.008000000
O     6.303000000    -2.075000000    -0.656000000
H     6.623000000    -2.508000000    -1.448000000
H     5.403000000    -2.389000000    -0.559000000
O    -5.407000000     0.067000000     2.335000000
H    -5.098000000    -0.193000000     1.468000000
H    -5.504000000    -0.758000000     2.811000000
O     4.416000000    -4.457000000    -0.678000000
H     3.755000000    -3.765000000    -0.677000000
H     4.274000000    -4.925000000     0.144000000
O     6.499000000    -3.406000000     2.093000000
H     6.985000000    -3.987000000     1.507000000
H     6.669000000    -2.527000000     1.754000000
O    -2.717000000    -3.303000000     2.621000000
H    -2.991000000    -4.038000000     3.168000000
H    -2.891000000    -3.593000000     1.725000000
O     7.468000000     1.019000000    -0.874000000
H     8.215000000     1.509000000    -1.218000000
H     7.485000000     0.189000000    -1.351000000
O     3.980000000    -5.476000000     3.469000000
H     4.109000000    -6.010000000     2.685000000
H     3.308000000    -4.842000000     3.219000000
O     3.624000000    -6.670000000     0.966000000
H     2.674000000    -6.616000000     0.855000000
H     3.965000000    -6.752000000     0.075000000
O     2.745000000     1.812000000    -4.063000000
H     3.317000000     1.227000000    -3.567000000
H     2.463000000     1.290000000    -4.814000000
O    -2.501000000     4.747000000     1.599000000
H    -1.818000000     5.126000000     1.046000000
H    -3.319000000     4.969000000     1.155000000
O    -6.477000000     2.596000000     2.860000000
H    -6.394000000     3.083000000     2.040000000
H    -5.977000000     1.793000000     2.714000000
O    -3.943000000    -0.633000000    -2.372000000
H    -4.287000000    -0.099000000    -3.089000000
H    -3.380000000    -0.037000000    -1.878000000
O    -2.662000000    -0.623000000     3.550000000
H    -3.551000000    -0.370000000     3.303000000
H    -2.589000000    -1.538000000     3.277000000
O     1.113000000     6.198000000    -1.925000000
H     1.286000000     5.453000000    -2.501000000
H     1.953000000     6.373000000    -1.501000000
