144
-2822.85028
O     2.034000000     4.527000000     1.107000000
H     1.643000000     4.793000000     0.275000000
H     2.627000000     5.244000000     1.332000000
O     2.883000000     2.970000000    -5.620000000
H     3.156000000     3.096000000    -4.711000000
H     2.561000000     3.828000000    -5.895000000
O    -1.795000000    -0.579000000     7.278000000
H    -0.892000000    -0.271000000     7.202000000
H    -2.103000000    -0.642000000     6.373000000
O     1.204000000    -3.686000000    -2.603000000
H     1.570000000    -4.393000000    -2.071000000
H     1.841000000    -2.975000000    -2.527000000
O    -1.449000000     0.604000000    -5.562000000
H    -0.502000000     0.724000000    -5.490000000
H    -1.734000000     0.411000000    -4.669000000
O     7.014000000     1.214000000    -4.270000000
H     6.515000000     1.448000000    -3.488000000
H     6.498000000     0.524000000    -4.686000000
O     0.386000000     5.270000000    -1.100000000
H     0.874000000     5.655000000    -1.829000000
H    -0.430000000     4.962000000    -1.494000000
O     0.159000000    -1.628000000    -4.403000000
H    -0.421000000    -1.249000000    -3.743000000
H     0.396000000    -2.485000000    -4.050000000
O    -0.321000000    -1.796000000    -7.209000000
H    -0.111000000    -0.986000000    -7.674000000
H    -0.087000000    -1.616000000    -6.298000000
O    -2.832000000    -2.841000000     4.554000000
H    -2.811000000    -3.282000000     3.705000000
H    -3.008000000    -1.924000000     4.342000000
O     0.533000000    -0.488000000     5.300000000
H     1.062000000    -0.595000000     4.509000000
H     0.160000000     0.390000000     5.222000000
O    -3.712000000     6.567000000     1.593000000
H    -2.990000000     6.769000000     0.997000000
H    -3.343000000     5.938000000     2.212000000
O    -0.327000000     2.227000000     6.485000000
H    -0.551000000     2.244000000     7.415000000
H    -1.071000000     2.648000000     6.052000000
O     6.518000000    -0.647000000    -6.704000000
H     6.466000000     0.275000000    -6.957000000
H     5.762000000    -0.782000000    -6.134000000
O     2.588000000     1.895000000     1.384000000
H     1.716000000     1.567000000     1.160000000
H     2.511000000     2.846000000     1.312000000
O     4.550000000    -0.403000000    -4.982000000
H     4.166000000     0.066000000    -4.241000000
H     3.842000000    -0.962000000    -5.304000000
O     6.963000000    -2.369000000     0.931000000
H     7.196000000    -3.294000000     1.006000000
H     6.061000000    -2.374000000     0.612000000
O     0.472000000     3.769000000     3.327000000
H     0.860000000     4.007000000     2.485000000
H     1.174000000     3.317000000     3.796000000
O     5.427000000     2.049000000    -7.030000000
H     4.819000000     2.086000000    -7.769000000
H     4.869000000     1.883000000    -6.270000000
O    -4.680000000    -0.831000000    -1.890000000
H    -5.376000000    -0.217000000    -1.654000000
H    -5.083000000    -1.695000000    -1.805000000
O    -3.984000000     2.647000000    -1.333000000
H    -3.366000000     2.018000000    -0.962000000
H    -4.840000000     2.233000000    -1.226000000
O     2.794000000     1.719000000     4.250000000
H     2.635000000     1.827000000     3.312000000
H     3.015000000     0.793000000     4.350000000
O    -4.691000000     2.765000000     2.019000000
H    -3.944000000     3.360000000     2.079000000
H    -5.447000000     3.340000000     1.905000000
O    -2.217000000     4.445000000     3.133000000
H    -2.226000000     5.044000000     3.879000000
H    -1.298000000     4.198000000     3.034000000
O    -1.839000000     4.626000000    -2.594000000
H    -2.638000000     4.144000000    -2.383000000
H    -2.145000000     5.494000000    -2.858000000
O    -4.597000000    -2.582000000     1.514000000
H    -5.449000000    -2.359000000     1.138000000
H    -4.490000000    -1.971000000     2.243000000
O     3.126000000    -1.036000000     3.869000000
H     4.062000000    -0.883000000     4.001000000
H     3.086000000    -1.838000000     3.347000000
O     1.018000000     1.198000000    -4.671000000
H     1.428000000     0.572000000    -4.074000000
H     1.748000000     1.569000000    -5.167000000
O     5.274000000     1.856000000    -2.174000000
H     5.820000000     2.210000000    -1.472000000
H     4.855000000     1.087000000    -1.787000000
O     0.153000000    -3.468000000     5.065000000
H     0.252000000    -2.628000000     5.514000000
H    -0.603000000    -3.344000000     4.491000000
O     3.515000000     3.613000000    -2.974000000
H     4.200000000     2.986000000    -2.741000000
H     3.390000000     4.137000000    -2.183000000
O    -2.549000000    -5.837000000     0.577000000
H    -2.018000000    -6.366000000     1.173000000
H    -2.645000000    -6.382000000    -0.205000000
O     0.338000000    -5.380000000     1.425000000
H     0.908000000    -5.236000000     0.669000000
H     0.217000000    -6.328000000     1.456000000
O     1.667000000     5.714000000    -3.534000000
H     2.314000000     5.023000000    -3.394000000
H     1.221000000     5.464000000    -4.343000000
O    -1.616000000     7.007000000    -0.411000000
H    -0.848000000     6.435000000    -0.395000000
H    -2.063000000     6.784000000    -1.228000000
O     2.540000000    -5.715000000    -0.711000000
H     2.429000000    -6.665000000    -0.761000000
H     3.344000000    -5.594000000    -0.206000000
O    -2.767000000     2.736000000     5.441000000
H    -3.599000000     2.761000000     5.914000000
H    -2.897000000     3.322000000     4.696000000
O     5.420000000    -2.746000000    -2.529000000
H     4.887000000    -2.277000000    -3.171000000
H     4.915000000    -2.699000000    -1.717000000
O    -5.627000000     0.344000000     3.330000000
H    -5.388000000     0.863000000     2.562000000
H    -6.149000000     0.939000000     3.869000000
O    -3.331000000     0.016000000     4.878000000
H    -4.138000000     0.170000000     4.387000000
H    -3.004000000     0.892000000     5.082000000
O     4.108000000    -2.804000000     0.233000000
H     3.491000000    -2.606000000    -0.472000000
H     3.555000000    -3.003000000     0.988000000
O     4.306000000     0.281000000    -0.165000000
H     3.709000000     0.621000000     0.502000000
H     3.740000000    -0.192000000    -0.775000000
O    -0.805000000    -5.593000000    -2.998000000
H    -1.352000000    -5.897000000    -2.274000000
H    -0.726000000    -4.649000000    -2.858000000
O    -1.916000000    -3.888000000     2.368000000
H    -2.418000000    -4.295000000     1.661000000
H    -1.026000000    -4.221000000     2.252000000
O     2.244000000    -3.369000000     2.394000000
H     2.740000000    -4.096000000     2.770000000
H     1.357000000    -3.713000000     2.289000000
O     2.480000000    -2.055000000    -5.898000000
H     2.359000000    -2.986000000    -6.084000000
H     1.700000000    -1.806000000    -5.402000000
O    -0.795000000     3.815000000    -5.133000000
H    -0.452000000     2.972000000    -4.838000000
H    -1.116000000     4.236000000    -4.336000000
O    -2.111000000    -0.336000000    -3.118000000
H    -3.013000000    -0.500000000    -2.843000000
H    -1.621000000    -0.260000000    -2.299000000
