144
-2808.58294
O     4.977000000    -4.137000000    -0.255000000
H     4.625000000    -3.840000000    -1.094000000
H     5.865000000    -4.432000000    -0.458000000
O    -0.157000000     0.588000000    -5.352000000
H    -0.306000000     0.543000000    -6.297000000
H    -0.290000000    -0.309000000    -5.046000000
O     2.222000000    -6.856000000    -2.758000000
H     1.943000000    -7.694000000    -3.128000000
H     1.591000000    -6.680000000    -2.061000000
O    -2.173000000     0.318000000     6.209000000
H    -1.584000000     1.068000000     6.288000000
H    -2.640000000     0.291000000     7.044000000
O     2.576000000    -4.350000000    -4.156000000
H     2.530000000    -5.256000000    -3.850000000
H     1.926000000    -3.886000000    -3.627000000
O     3.366000000     1.245000000     2.683000000
H     4.292000000     1.041000000     2.550000000
H     2.908000000     0.718000000     2.028000000
O     4.698000000     1.488000000    -3.353000000
H     3.961000000     1.064000000    -3.793000000
H     4.545000000     1.330000000    -2.422000000
O     4.930000000     5.804000000    -0.853000000
H     4.470000000     5.026000000    -0.538000000
H     4.411000000     6.538000000    -0.523000000
O    -1.006000000    -4.622000000    -3.719000000
H    -0.354000000    -3.951000000    -3.514000000
H    -1.653000000    -4.549000000    -3.018000000
O    -3.741000000    -1.755000000     3.216000000
H    -3.808000000    -1.771000000     4.171000000
H    -3.118000000    -2.452000000     3.009000000
O    -2.174000000     4.145000000     4.013000000
H    -1.344000000     4.135000000     3.537000000
H    -1.965000000     4.555000000     4.852000000
O     2.913000000     3.911000000     0.341000000
H     2.810000000     4.190000000     1.250000000
H     2.098000000     4.176000000    -0.085000000
O     5.331000000    -3.904000000    -4.745000000
H     5.444000000    -4.764000000    -4.340000000
H     4.624000000    -4.029000000    -5.378000000
O     0.667000000     5.013000000     3.423000000
H     1.069000000     5.836000000     3.144000000
H     1.384000000     4.379000000     3.408000000
O     1.423000000    -2.427000000    -5.618000000
H     1.855000000    -3.252000000    -5.400000000
H     1.532000000    -1.885000000    -4.836000000
O     0.174000000     5.281000000     0.169000000
H    -0.574000000     5.444000000     0.744000000
H     0.612000000     6.129000000     0.099000000
O     5.222000000    -0.462000000    -0.685000000
H     4.439000000    -0.648000000    -0.167000000
H     5.353000000    -1.250000000    -1.212000000
O    -4.270000000    -3.933000000    -2.838000000
H    -3.678000000    -3.198000000    -2.684000000
H    -5.143000000    -3.577000000    -2.669000000
O    -5.952000000     3.916000000     2.321000000
H    -6.112000000     3.134000000     2.849000000
H    -6.526000000     4.583000000     2.699000000
O    -3.372000000    -4.456000000    -5.475000000
H    -3.946000000    -4.314000000    -4.722000000
H    -2.652000000    -4.985000000    -5.131000000
O    -1.204000000     2.210000000    -3.333000000
H    -1.733000000     2.583000000    -4.038000000
H    -0.738000000     1.482000000    -3.742000000
O     2.453000000     0.686000000    -4.622000000
H     2.345000000    -0.091000000    -4.074000000
H     1.576000000     1.065000000    -4.675000000
O    -2.043000000    -4.842000000    -0.099000000
H    -2.271000000    -5.208000000     0.756000000
H    -1.924000000    -5.606000000    -0.663000000
O    -1.181000000    -1.974000000    -5.396000000
H    -1.540000000    -2.351000000    -4.592000000
H    -0.261000000    -2.237000000    -5.393000000
O     2.335000000    -1.432000000    -8.041000000
H     1.806000000    -1.661000000    -7.276000000
H     3.152000000    -1.095000000    -7.675000000
O    -4.494000000     0.590000000     2.179000000
H    -4.485000000     1.028000000     3.030000000
H    -4.211000000    -0.305000000     2.368000000
O    -4.860000000     1.564000000    -0.331000000
H    -4.074000000     2.085000000    -0.497000000
H    -4.705000000     1.161000000     0.523000000
O    -0.513000000    -6.420000000    -5.747000000
H    -0.543000000    -5.758000000    -5.057000000
H    -0.622000000    -7.252000000    -5.286000000
O     3.328000000     5.015000000    -3.466000000
H     2.803000000     4.720000000    -2.721000000
H     4.202000000     5.156000000    -3.103000000
O     2.364000000     3.378000000    -5.618000000
H     2.365000000     2.470000000    -5.315000000
H     2.696000000     3.879000000    -4.873000000
O    -3.806000000    -2.744000000    -0.260000000
H    -3.358000000    -2.046000000     0.219000000
H    -3.168000000    -3.456000000    -0.298000000
O    -3.835000000     5.699000000     2.162000000
H    -4.683000000     5.308000000     2.371000000
H    -3.223000000     5.284000000     2.770000000
O    -2.891000000    -1.309000000    -3.078000000
H    -2.315000000    -1.103000000    -2.341000000
H    -3.728000000    -0.907000000    -2.847000000
O    -0.151000000     2.171000000     6.364000000
H     0.641000000     2.168000000     5.827000000
H     0.048000000     2.775000000     7.080000000
O    -1.730000000    -3.784000000     2.711000000
H    -1.155000000    -3.729000000     3.474000000
H    -1.300000000    -4.412000000     2.131000000
O    -3.254000000     5.299000000    -0.610000000
H    -2.923000000     4.426000000    -0.823000000
H    -3.541000000     5.231000000     0.300000000
O     0.445000000    -7.438000000    -0.398000000
H     0.386000000    -7.096000000     0.494000000
H    -0.213000000    -6.944000000    -0.888000000
O     3.041000000    -1.250000000     0.967000000
H     2.100000000    -1.352000000     0.826000000
H     3.173000000    -1.483000000     1.886000000
O     5.238000000     2.856000000    -0.558000000
H     4.365000000     3.082000000    -0.238000000
H     5.217000000     1.903000000    -0.655000000
O     3.533000000     3.989000000     3.172000000
H     3.357000000     3.057000000     3.047000000
H     4.464000000     4.031000000     3.387000000
O    -4.266000000     1.537000000     4.897000000
H    -3.676000000     2.176000000     4.497000000
H    -3.687000000     0.934000000     5.361000000
O     4.486000000    -2.312000000    -2.518000000
H     4.718000000    -2.835000000    -3.285000000
H     3.648000000    -1.911000000    -2.746000000
O    -6.569000000    -1.414000000     2.874000000
H    -5.740000000    -1.833000000     2.643000000
H    -6.359000000    -0.481000000     2.928000000
O     1.130000000     4.067000000    -1.957000000
H     0.692000000     3.395000000    -2.479000000
H     0.433000000     4.447000000    -1.422000000
O     1.819000000    -1.872000000     3.632000000
H     0.891000000    -1.728000000     3.816000000
H     1.931000000    -2.820000000     3.692000000
O    -2.231000000     2.690000000    -0.831000000
H    -1.763000000     2.569000000    -0.005000000
H    -1.628000000     2.360000000    -1.498000000
O    -0.884000000    -1.623000000     4.890000000
H    -1.537000000    -0.932000000     5.001000000
H    -0.148000000    -1.347000000     5.438000000
O     3.214000000     1.463000000     5.425000000
H     3.566000000     0.576000000     5.498000000
H     2.987000000     1.555000000     4.500000000
