144
-2804.69217
O    -4.243000000    -1.598000000    -6.318000000
H    -3.818000000    -1.249000000    -7.101000000
H    -5.178000000    -1.473000000    -6.476000000
O    -0.583000000    -6.107000000     2.641000000
H    -1.145000000    -5.339000000     2.537000000
H     0.204000000    -5.772000000     3.071000000
O     5.131000000    -1.985000000    -0.925000000
H     4.433000000    -2.533000000    -0.565000000
H     5.676000000    -1.765000000    -0.170000000
O    -4.802000000     1.781000000    -1.020000000
H    -3.899000000     1.977000000    -1.269000000
H    -4.828000000     0.828000000    -0.942000000
O    -5.860000000     1.946000000     1.532000000
H    -5.269000000     1.931000000     2.285000000
H    -5.314000000     1.678000000     0.793000000
O     0.682000000    -2.455000000    -5.007000000
H     0.953000000    -1.634000000    -4.595000000
H     0.078000000    -2.187000000    -5.699000000
O    -1.264000000    -4.169000000     5.330000000
H    -1.434000000    -3.583000000     6.068000000
H    -0.584000000    -3.725000000     4.824000000
O    -1.594000000     4.741000000    -6.210000000
H    -1.719000000     5.659000000    -5.968000000
H    -1.060000000     4.378000000    -5.503000000
O     5.004000000     0.718000000    -2.055000000
H     4.953000000    -0.176000000    -1.717000000
H     5.885000000     1.013000000    -1.823000000
O     2.249000000     3.058000000     3.633000000
H     2.710000000     3.885000000     3.496000000
H     2.896000000     2.385000000     3.422000000
O     3.035000000     0.333000000     6.540000000
H     2.257000000     0.890000000     6.570000000
H     3.440000000     0.531000000     5.696000000
O    -3.127000000    -0.045000000    -8.306000000
H    -3.092000000     0.724000000    -7.737000000
H    -3.219000000     0.315000000    -9.188000000
O    -4.426000000     1.663000000     4.246000000
H    -4.176000000     0.805000000     4.589000000
H    -3.646000000     1.975000000     3.788000000
O    -0.602000000    -1.650000000    -7.541000000
H    -1.527000000    -1.413000000    -7.482000000
H    -0.164000000    -0.841000000    -7.808000000
O    -0.853000000     5.427000000    -3.476000000
H    -0.548000000     4.662000000    -2.988000000
H    -1.747000000     5.570000000    -3.163000000
O     4.637000000     3.017000000    -5.197000000
H     4.153000000     2.241000000    -4.914000000
H     4.668000000     2.945000000    -6.151000000
O    -3.247000000    -1.178000000    -3.750000000
H    -2.409000000    -0.734000000    -3.617000000
H    -3.345000000    -1.224000000    -4.702000000
O     1.254000000     2.531000000     6.167000000
H     1.451000000     2.676000000     5.241000000
H     1.933000000     3.015000000     6.635000000
O     3.527000000     0.770000000    -4.405000000
H     3.904000000     0.763000000    -3.525000000
H     2.633000000     0.449000000    -4.285000000
O     2.296000000     0.310000000    -7.071000000
H     2.788000000    -0.496000000    -7.228000000
H     2.347000000     0.441000000    -6.124000000
O     0.709000000     3.367000000    -2.782000000
H     1.379000000     2.725000000    -2.549000000
H     0.091000000     2.881000000    -3.328000000
O    -3.909000000    -1.579000000     3.835000000
H    -4.404000000    -2.366000000     4.064000000
H    -3.003000000    -1.792000000     4.060000000
O    -0.678000000    -3.359000000     0.645000000
H    -1.628000000    -3.259000000     0.711000000
H    -0.450000000    -2.937000000    -0.183000000
O     4.729000000    -1.450000000    -5.365000000
H     4.300000000    -0.645000000    -5.076000000
H     4.326000000    -2.140000000    -4.838000000
O    -0.619000000    -3.960000000    -2.955000000
H    -0.234000000    -3.228000000    -3.438000000
H     0.126000000    -4.383000000    -2.528000000
O    -4.742000000    -1.134000000    -1.358000000
H    -4.254000000    -1.151000000    -2.181000000
H    -5.599000000    -1.500000000    -1.581000000
O    -0.753000000     4.503000000     1.920000000
H    -0.095000000     4.113000000     1.344000000
H    -0.287000000     5.203000000     2.378000000
O     2.995000000    -3.493000000     1.012000000
H     3.345000000    -4.365000000     0.827000000
H     2.047000000    -3.593000000     0.928000000
O    -2.175000000     3.362000000     3.813000000
H    -1.736000000     3.467000000     2.969000000
H    -2.663000000     4.177000000     3.932000000
O     3.046000000    -3.886000000    -4.225000000
H     2.863000000    -4.763000000    -3.888000000
H     2.189000000    -3.461000000    -4.265000000
O    -3.498000000     2.385000000    -6.572000000
H    -4.365000000     2.666000000    -6.865000000
H    -3.231000000     3.050000000    -5.938000000
O     0.075000000     0.978000000    -8.808000000
H     0.865000000     0.809000000    -8.293000000
H    -0.616000000     1.093000000    -8.155000000
O     6.575000000     1.129000000     2.259000000
H     7.435000000     0.723000000     2.369000000
H     6.465000000     1.202000000     1.311000000
O    -2.763000000     0.019000000     6.487000000
H    -2.267000000     0.794000000     6.751000000
H    -2.198000000    -0.717000000     6.721000000
O    -1.533000000     2.878000000     6.454000000
H    -0.629000000     2.623000000     6.266000000
H    -1.898000000     3.112000000     5.601000000
O    -3.334000000    -3.961000000    -3.047000000
H    -3.612000000    -3.057000000    -3.197000000
H    -2.395000000    -3.957000000    -3.232000000
O    -0.981000000     1.086000000    -6.336000000
H    -1.735000000     1.642000000    -6.138000000
H    -0.718000000     0.729000000    -5.488000000
O    -2.973000000     2.549000000    -2.976000000
H    -3.339000000     3.101000000    -3.666000000
H    -2.750000000     1.729000000    -3.418000000
O     0.757000000    -3.580000000     3.403000000
H     0.380000000    -3.459000000     2.532000000
H     1.062000000    -2.708000000     3.655000000
O     1.173000000     3.356000000     0.460000000
H     1.619000000     3.459000000    -0.380000000
H     1.022000000     2.414000000     0.538000000
O     3.050000000    -1.811000000     3.094000000
H     3.026000000    -2.519000000     3.737000000
H     2.937000000    -2.248000000     2.251000000
O     2.600000000     5.095000000    -3.891000000
H     3.192000000     4.419000000    -4.221000000
H     1.969000000     4.618000000    -3.352000000
O    -6.117000000     3.376000000    -3.212000000
H    -5.604000000     2.838000000    -2.608000000
H    -6.651000000     2.748000000    -3.698000000
O     3.316000000     2.951000000    -1.634000000
H     3.763000000     3.479000000    -0.972000000
H     3.919000000     2.230000000    -1.813000000
O     4.180000000    -2.078000000     7.041000000
H     3.917000000    -2.809000000     6.481000000
H     3.643000000    -1.343000000     6.742000000
O    -2.980000000    -5.347000000    -0.022000000
H    -3.627000000    -5.541000000    -0.701000000
H    -3.261000000    -4.508000000     0.344000000
O    -3.124000000    -2.558000000     0.958000000
H    -3.554000000    -1.970000000     0.336000000
H    -3.766000000    -2.679000000     1.657000000
O     4.300000000     0.505000000     4.127000000
H     3.785000000    -0.285000000     3.959000000
H     5.008000000     0.469000000     3.483000000
