144
-2813.93729
O    -0.636000000    -3.610000000     3.538000000
H    -1.164000000    -3.154000000     4.193000000
H    -1.087000000    -3.444000000     2.710000000
O    -3.590000000     1.585000000     0.626000000
H    -3.512000000     0.815000000     1.190000000
H    -3.248000000     1.298000000    -0.220000000
O    -1.242000000     3.296000000     5.107000000
H    -1.804000000     3.284000000     4.333000000
H    -1.111000000     4.226000000     5.294000000
O     1.202000000    -0.859000000     6.717000000
H     1.598000000    -0.180000000     6.172000000
H     0.363000000    -1.046000000     6.296000000
O    -4.736000000    -0.855000000     2.508000000
H    -4.137000000    -1.134000000     1.816000000
H    -5.592000000    -1.181000000     2.229000000
O    -2.009000000    -3.854000000     0.998000000
H    -2.417000000    -3.126000000     0.528000000
H    -1.592000000    -4.377000000     0.314000000
O    -1.446000000    -2.757000000    -6.390000000
H    -1.740000000    -1.935000000    -5.997000000
H    -1.353000000    -2.558000000    -7.321000000
O     2.817000000     3.206000000    -1.778000000
H     3.518000000     3.644000000    -2.259000000
H     2.628000000     2.421000000    -2.292000000
O     1.374000000     2.616000000     5.855000000
H     0.479000000     2.807000000     5.572000000
H     1.914000000     3.254000000     5.389000000
O    -2.210000000    -2.017000000     5.226000000
H    -2.459000000    -2.204000000     6.131000000
H    -2.127000000    -1.064000000     5.192000000
O    -0.202000000    -0.671000000    -8.157000000
H    -0.109000000     0.210000000    -8.520000000
H     0.282000000    -0.642000000    -7.331000000
O     2.889000000    -2.028000000    -2.483000000
H     2.208000000    -2.045000000    -3.156000000
H     3.116000000    -2.948000000    -2.349000000
O    -5.516000000     3.789000000     0.882000000
H    -4.972000000     4.413000000     1.363000000
H    -5.052000000     2.956000000     0.962000000
O     0.713000000     1.802000000     8.431000000
H     0.547000000     0.911000000     8.122000000
H     0.893000000     2.302000000     7.635000000
O    -2.430000000    -0.469000000    -5.696000000
H    -1.819000000    -0.280000000    -4.984000000
H    -2.502000000     0.357000000    -6.175000000
O     2.571000000     5.764000000     4.719000000
H     2.507000000     6.714000000     4.812000000
H     2.682000000     5.622000000     3.779000000
O     1.604000000     0.476000000    -5.637000000
H     2.452000000     0.038000000    -5.711000000
H     1.239000000     0.153000000    -4.813000000
O    -4.637000000     0.591000000     4.654000000
H    -4.583000000     0.039000000     3.874000000
H    -4.179000000     0.094000000     5.332000000
O    -1.864000000     5.359000000    -5.117000000
H    -1.159000000     4.748000000    -5.331000000
H    -2.111000000     5.743000000    -5.959000000
O    -3.100000000    -1.248000000     0.375000000
H    -2.238000000    -0.832000000     0.369000000
H    -3.494000000    -0.997000000    -0.460000000
O    -0.822000000    -4.874000000    -1.199000000
H    -1.329000000    -4.824000000    -2.010000000
H     0.050000000    -4.564000000    -1.443000000
O    -3.378000000     5.508000000     1.595000000
H    -2.667000000     6.049000000     1.939000000
H    -3.001000000     5.073000000     0.831000000
O    -2.919000000     3.976000000    -2.931000000
H    -2.613000000     3.095000000    -3.149000000
H    -2.616000000     4.520000000    -3.658000000
O     5.253000000    -2.702000000    -4.044000000
H     4.451000000    -3.180000000    -3.833000000
H     5.745000000    -3.297000000    -4.610000000
O     1.300000000    -3.712000000    -4.553000000
H     0.756000000    -3.771000000    -5.338000000
H     0.971000000    -2.940000000    -4.092000000
O    -4.025000000    -1.991000000    -4.148000000
H    -4.729000000    -1.359000000    -4.001000000
H    -3.408000000    -1.534000000    -4.718000000
O    -0.866000000    -6.059000000     4.700000000
H    -0.122000000    -6.640000000     4.542000000
H    -0.600000000    -5.221000000     4.321000000
O    -1.759000000     0.688000000     5.923000000
H    -1.606000000     1.608000000     5.708000000
H    -1.568000000     0.626000000     6.859000000
O    -2.899000000     2.207000000    -6.869000000
H    -3.072000000     3.141000000    -6.982000000
H    -3.765000000     1.814000000    -6.760000000
O     3.495000000    -1.336000000    -5.740000000
H     3.681000000    -1.995000000    -6.410000000
H     4.125000000    -1.520000000    -5.043000000
O    -5.565000000     3.736000000    -1.889000000
H    -5.445000000     3.603000000    -0.949000000
H    -4.787000000     3.346000000    -2.287000000
O     0.508000000     4.733000000    -1.192000000
H     0.956000000     5.560000000    -1.011000000
H     1.203000000     4.142000000    -1.481000000
O     3.653000000    -5.025000000     0.533000000
H     4.077000000    -5.790000000     0.921000000
H     3.714000000    -5.170000000    -0.411000000
O    -3.048000000     2.973000000     3.295000000
H    -2.905000000     2.737000000     2.378000000
H    -3.635000000     2.294000000     3.629000000
O     3.295000000    -4.858000000    -2.431000000
H     3.063000000    -4.965000000    -3.354000000
H     3.297000000    -5.749000000    -2.080000000
O    -5.161000000     0.653000000    -4.318000000
H    -5.084000000     0.604000000    -5.271000000
H    -6.096000000     0.776000000    -4.159000000
O    -2.108000000     4.278000000    -0.295000000
H    -1.221000000     4.460000000    -0.603000000
H    -2.356000000     3.469000000    -0.743000000
O     3.822000000     3.306000000     0.650000000
H     3.903000000     2.360000000     0.766000000
H     3.397000000     3.408000000    -0.201000000
O    -0.673000000    -6.430000000    -4.601000000
H    -0.495000000    -7.119000000    -3.960000000
H    -0.814000000    -5.644000000    -4.075000000
O    -0.862000000     2.351000000    -4.413000000
H    -0.937000000     1.410000000    -4.256000000
H    -1.048000000     2.454000000    -5.346000000
O    -3.327000000     0.609000000    -2.009000000
H    -4.044000000     0.586000000    -2.643000000
H    -2.557000000     0.338000000    -2.509000000
O     3.595000000     0.548000000     0.259000000
H     3.947000000     0.677000000    -0.622000000
H     2.800000000     0.032000000     0.125000000
O     1.423000000     4.026000000    -4.837000000
H     1.354000000     4.683000000    -4.144000000
H     0.874000000     3.302000000    -4.535000000
O     2.084000000    -4.732000000     2.951000000
H     2.646000000    -4.551000000     2.198000000
H     1.415000000    -4.048000000     2.922000000
O     3.595000000     0.705000000    -2.688000000
H     4.392000000     0.639000000    -3.213000000
H     3.272000000    -0.194000000    -2.627000000
O     4.396000000    -2.529000000     6.058000000
H     4.125000000    -1.672000000     5.730000000
H     4.067000000    -2.557000000     6.956000000
O    -2.038000000    -4.283000000    -3.584000000
H    -2.287000000    -3.361000000    -3.648000000
H    -2.848000000    -4.763000000    -3.761000000
O     4.712000000     0.681000000     3.311000000
H     4.070000000     1.120000000     2.754000000
H     5.077000000    -0.009000000     2.757000000
