144
-2812.32611
O    -1.731000000    -2.179000000    -7.643000000
H    -0.942000000    -2.210000000    -7.102000000
H    -1.458000000    -2.543000000    -8.485000000
O     2.940000000     1.978000000     6.222000000
H     2.605000000     2.666000000     6.796000000
H     2.184000000     1.715000000     5.696000000
O    -1.442000000    -3.596000000    -1.033000000
H    -1.200000000    -4.285000000    -0.414000000
H    -0.632000000    -3.400000000    -1.503000000
O     0.795000000    -6.682000000    -2.714000000
H     1.093000000    -7.592000000    -2.710000000
H     1.578000000    -6.173000000    -2.504000000
O    -2.934000000     1.992000000    -6.049000000
H    -3.545000000     1.255000000    -6.088000000
H    -2.109000000     1.603000000    -5.759000000
O     1.181000000     3.108000000    -1.390000000
H     1.658000000     2.701000000    -0.666000000
H     0.331000000     2.668000000    -1.394000000
O    -1.923000000    -5.325000000    -5.957000000
H    -1.960000000    -4.407000000    -5.688000000
H    -1.200000000    -5.362000000    -6.583000000
O    -4.735000000    -1.965000000     2.458000000
H    -3.854000000    -1.815000000     2.116000000
H    -5.317000000    -1.641000000     1.770000000
O     1.368000000     1.942000000    -4.101000000
H     1.078000000     2.806000000    -4.394000000
H     1.956000000     2.123000000    -3.367000000
O     3.478000000     2.790000000     1.011000000
H     3.832000000     2.018000000     1.454000000
H     3.692000000     2.655000000     0.087000000
O    -3.950000000     2.547000000    -1.989000000
H    -3.181000000     2.755000000    -2.519000000
H    -3.936000000     1.594000000    -1.908000000
O    -2.040000000    -1.852000000     0.978000000
H    -1.914000000    -2.326000000     0.157000000
H    -1.368000000    -1.169000000     0.966000000
O     0.385000000    -4.121000000     2.979000000
H     0.533000000    -5.065000000     3.032000000
H     0.285000000    -3.947000000     2.043000000
O     6.053000000    -1.511000000     0.073000000
H     5.209000000    -1.961000000     0.036000000
H     6.661000000    -2.105000000    -0.367000000
O    -4.588000000    -0.084000000    -2.853000000
H    -4.234000000    -0.840000000    -2.386000000
H    -4.572000000    -0.342000000    -3.775000000
O     3.549000000    -2.305000000    -3.569000000
H     2.609000000    -2.456000000    -3.474000000
H     3.702000000    -1.467000000    -3.132000000
O     2.403000000    -4.665000000    -1.348000000
H     1.827000000    -4.068000000    -1.825000000
H     2.966000000    -4.090000000    -0.829000000
O    -1.704000000    -7.333000000    -2.207000000
H    -0.802000000    -7.097000000    -2.425000000
H    -1.900000000    -6.828000000    -1.417000000
O    -1.390000000     2.728000000    -3.211000000
H    -1.342000000     3.543000000    -3.710000000
H    -1.210000000     2.042000000    -3.854000000
O     2.749000000     0.239000000    -5.784000000
H     2.402000000     0.731000000    -5.040000000
H     3.160000000     0.902000000    -6.339000000
O    -6.373000000    -0.614000000     0.508000000
H    -6.793000000    -0.260000000    -0.276000000
H    -6.144000000     0.158000000     1.026000000
O    -3.834000000     1.749000000     5.552000000
H    -4.092000000     2.099000000     4.700000000
H    -4.428000000     1.013000000     5.699000000
O    -0.494000000     3.352000000     5.326000000
H    -0.201000000     2.484000000     5.604000000
H    -1.448000000     3.279000000     5.280000000
O     4.105000000    -3.174000000     0.505000000
H     4.779000000    -3.836000000     0.663000000
H     3.670000000    -3.069000000     1.351000000
O     4.866000000    -4.518000000    -4.627000000
H     5.347000000    -4.939000000    -3.915000000
H     4.448000000    -3.760000000    -4.218000000
O     0.102000000     7.261000000     2.142000000
H    -0.510000000     7.210000000     1.408000000
H     0.167000000     6.362000000     2.462000000
O     1.053000000    -7.338000000    -5.381000000
H     0.798000000    -6.912000000    -4.562000000
H     1.981000000    -7.124000000    -5.483000000
O     0.832000000    -2.151000000    -6.120000000
H     0.878000000    -2.908000000    -5.536000000
H     1.004000000    -1.400000000    -5.552000000
O    -3.999000000     3.458000000     3.031000000
H    -3.159000000     3.618000000     2.600000000
H    -4.400000000     4.324000000     3.102000000
O     1.383000000    -0.478000000    -8.295000000
H     2.131000000    -0.003000000    -7.933000000
H     1.138000000    -1.098000000    -7.608000000
O     0.105000000    -2.258000000     5.135000000
H     0.055000000    -2.967000000     4.493000000
H    -0.568000000    -2.472000000     5.781000000
O     3.268000000     5.087000000     2.814000000
H     3.194000000     4.370000000     2.183000000
H     3.976000000     4.819000000     3.399000000
O     0.192000000     0.532000000     5.323000000
H     0.609000000    -0.306000000     5.121000000
H    -0.633000000     0.293000000     5.746000000
O     3.094000000    -3.100000000     3.027000000
H     2.175000000    -3.099000000     3.294000000
H     3.551000000    -2.657000000     3.742000000
O     0.332000000     5.064000000     3.458000000
H     1.287000000     5.101000000     3.407000000
H     0.154000000     4.536000000     4.236000000
O    -6.579000000     2.691000000    -2.272000000
H    -6.853000000     1.974000000    -2.844000000
H    -5.634000000     2.574000000    -2.176000000
O     0.566000000    -4.399000000    -4.519000000
H     0.537000000    -3.793000000    -3.779000000
H     0.025000000    -5.139000000    -4.245000000
O    -5.041000000     1.528000000     1.590000000
H    -4.208000000     1.796000000     1.202000000
H    -5.114000000     2.053000000     2.387000000
O    -1.916000000     0.173000000     7.069000000
H    -2.461000000     0.839000000     6.651000000
H    -1.735000000     0.524000000     7.941000000
O    -2.393000000    -4.623000000     2.331000000
H    -1.594000000    -4.810000000     2.825000000
H    -2.235000000    -3.767000000     1.934000000
O    -0.629000000     0.567000000    -4.843000000
H     0.168000000     1.083000000    -4.715000000
H    -0.478000000    -0.235000000    -4.343000000
O    -3.346000000    -2.382000000    -2.313000000
H    -2.591000000    -2.752000000    -1.856000000
H    -3.096000000    -2.393000000    -3.237000000
O    -4.692000000     5.250000000    -1.326000000
H    -4.753000000     4.344000000    -1.630000000
H    -4.580000000     5.764000000    -2.126000000
O     5.007000000    -0.281000000    -2.324000000
H     5.604000000    -0.319000000    -3.071000000
H     5.499000000    -0.673000000    -1.603000000
O    -4.687000000    -1.331000000     5.320000000
H    -5.253000000    -1.743000000     4.667000000
H    -3.798000000    -1.548000000     5.037000000
O     4.616000000     0.268000000     2.090000000
H     4.982000000    -0.259000000     2.801000000
H     5.290000000     0.254000000     1.410000000
O     0.329000000    -5.066000000     0.393000000
H     0.285000000    -6.013000000     0.526000000
H     1.190000000    -4.920000000     0.000000000
O    -2.461000000    -2.457000000    -5.023000000
H    -1.663000000    -2.166000000    -4.583000000
H    -2.374000000    -2.131000000    -5.919000000
