144
-2813.59370
O     2.196000000     1.754000000     4.435000000
H     1.938000000     2.392000000     3.769000000
H     1.372000000     1.489000000     4.844000000
O    -5.362000000    -2.894000000     0.962000000
H    -4.648000000    -3.401000000     1.348000000
H    -4.935000000    -2.339000000     0.309000000
O    -2.623000000    -5.120000000    -0.517000000
H    -3.517000000    -5.117000000    -0.858000000
H    -2.332000000    -6.027000000    -0.615000000
O    -5.231000000    -0.074000000    -4.789000000
H    -4.809000000     0.273000000    -5.575000000
H    -4.518000000    -0.476000000    -4.293000000
O     0.832000000     0.644000000    -3.147000000
H     1.780000000     0.522000000    -3.103000000
H     0.489000000     0.115000000    -2.426000000
O     6.616000000     0.654000000     2.214000000
H     5.747000000     0.259000000     2.284000000
H     7.218000000    -0.043000000     2.475000000
O    -5.822000000     1.016000000     2.613000000
H    -5.117000000     0.447000000     2.305000000
H    -5.944000000     1.651000000     1.907000000
O     3.977000000     3.100000000    -1.464000000
H     4.539000000     2.460000000    -1.028000000
H     4.003000000     3.869000000    -0.895000000
O    -1.637000000     3.521000000    -1.667000000
H    -2.292000000     3.466000000    -2.363000000
H    -2.134000000     3.395000000    -0.859000000
O    -3.908000000    -0.276000000     1.287000000
H    -3.008000000    -0.072000000     1.543000000
H    -4.029000000     0.179000000     0.454000000
O     6.014000000    -2.388000000     0.538000000
H     5.174000000    -2.487000000     0.985000000
H     6.534000000    -3.134000000     0.838000000
O    -4.134000000     2.255000000    -2.437000000
H    -4.338000000     1.411000000    -2.033000000
H    -4.605000000     2.242000000    -3.270000000
O     2.584000000    -2.733000000    -2.738000000
H     1.779000000    -3.114000000    -2.388000000
H     2.757000000    -1.978000000    -2.174000000
O     3.167000000    -2.180000000     6.072000000
H     2.844000000    -1.971000000     5.196000000
H     2.895000000    -1.437000000     6.611000000
O     0.326000000    -4.401000000    -4.497000000
H     0.023000000    -3.912000000    -5.263000000
H     0.582000000    -3.726000000    -3.869000000
O    -4.885000000    -4.547000000    -5.362000000
H    -4.083000000    -4.787000000    -4.898000000
H    -4.671000000    -4.665000000    -6.287000000
O    -0.259000000    -4.744000000     0.602000000
H    -1.204000000    -4.834000000     0.477000000
H     0.043000000    -4.278000000    -0.178000000
O    -1.554000000     1.551000000    -4.027000000
H    -2.133000000     0.793000000    -4.105000000
H    -0.752000000     1.201000000    -3.639000000
O     3.905000000     4.492000000     1.695000000
H     4.553000000     5.162000000     1.480000000
H     4.368000000     3.888000000     2.276000000
O    -2.692000000     2.859000000     3.156000000
H    -3.010000000     3.416000000     3.867000000
H    -2.929000000     3.332000000     2.358000000
O     4.012000000    -2.393000000     2.263000000
H     3.099000000    -2.115000000     2.187000000
H     4.094000000    -2.704000000     3.165000000
O     3.837000000    -2.826000000    -5.407000000
H     3.376000000    -2.989000000    -4.585000000
H     3.669000000    -1.902000000    -5.596000000
O     0.937000000     3.869000000    -1.752000000
H     0.001000000     4.053000000    -1.666000000
H     0.983000000     2.922000000    -1.883000000
O    -3.316000000     4.329000000     0.684000000
H    -3.763000000     4.842000000     0.011000000
H    -2.605000000     4.896000000     0.985000000
O    -0.148000000     7.383000000    -0.829000000
H    -0.575000000     6.740000000    -0.264000000
H     0.762000000     7.395000000    -0.533000000
O    -2.982000000    -0.176000000     4.039000000
H    -3.124000000     0.024000000     4.964000000
H    -3.306000000     0.596000000     3.575000000
O     0.793000000    -7.935000000    -3.285000000
H     1.116000000    -7.060000000    -3.501000000
H     0.809000000    -7.968000000    -2.329000000
O     1.918000000    -7.442000000    -0.353000000
H     1.475000000    -6.876000000     0.280000000
H     2.722000000    -7.713000000     0.090000000
O    -1.199000000    -1.945000000    -6.618000000
H    -0.299000000    -1.726000000    -6.858000000
H    -1.242000000    -2.899000000    -6.690000000
O     1.553000000     6.524000000     3.418000000
H     2.399000000     6.641000000     3.851000000
H     1.703000000     6.807000000     2.517000000
O    -0.516000000    -1.567000000     5.485000000
H    -1.278000000    -1.830000000     4.968000000
H    -0.490000000    -0.614000000     5.406000000
O     1.856000000    -1.243000000     3.750000000
H     1.955000000    -0.328000000     4.015000000
H     0.921000000    -1.423000000     3.854000000
O    -0.703000000     4.565000000     5.179000000
H    -0.351000000     5.246000000     4.606000000
H    -1.632000000     4.518000000     4.953000000
O    -1.079000000     5.848000000     1.289000000
H    -0.179000000     5.521000000     1.273000000
H    -1.166000000     6.267000000     2.145000000
O     4.097000000    -5.673000000     2.297000000
H     3.946000000    -6.431000000     1.733000000
H     3.222000000    -5.329000000     2.477000000
O     6.172000000    -1.090000000    -1.753000000
H     7.106000000    -1.010000000    -1.949000000
H     6.139000000    -1.606000000    -0.947000000
O    -2.527000000    -4.956000000    -3.859000000
H    -1.938000000    -4.792000000    -3.122000000
H    -1.951000000    -4.988000000    -4.623000000
O    -5.766000000     2.897000000     0.600000000
H    -5.869000000     2.367000000    -0.190000000
H    -4.852000000     3.182000000     0.580000000
O    -0.580000000     1.175000000     5.261000000
H    -1.245000000     1.425000000     4.619000000
H    -0.581000000     1.889000000     5.898000000
O     1.343000000     5.232000000     0.666000000
H     2.137000000     4.901000000     1.086000000
H     1.268000000     4.721000000    -0.141000000
O     2.593000000    -5.716000000    -3.821000000
H     1.899000000    -5.480000000    -4.437000000
H     2.464000000    -5.127000000    -3.077000000
O    -0.471000000     3.436000000     7.492000000
H    -0.548000000     3.908000000     6.663000000
H    -1.183000000     3.780000000     8.031000000
O    -2.440000000    -0.884000000    -4.343000000
H    -2.128000000    -1.370000000    -5.106000000
H    -2.233000000    -1.448000000    -3.598000000
O     1.248000000    -6.286000000     2.283000000
H     0.908000000    -5.655000000     1.649000000
H     1.617000000    -5.748000000     2.983000000
O    -5.122000000     0.291000000    -1.140000000
H    -6.039000000     0.107000000    -0.938000000
H    -4.810000000    -0.501000000    -1.578000000
O     3.789000000     0.451000000    -3.025000000
H     3.860000000     1.323000000    -2.637000000
H     4.423000000    -0.079000000    -2.542000000
O     6.161000000     1.470000000    -0.412000000
H     6.054000000     0.785000000    -1.072000000
H     6.231000000     0.995000000     0.416000000
O    -4.174000000    -2.111000000    -1.683000000
H    -3.278000000    -2.403000000    -1.853000000
H    -4.725000000    -2.800000000    -2.055000000
