144
-2782.18307
O     1.660000000     6.121000000     1.822000000
H     2.509000000     5.696000000     1.945000000
H     1.785000000     6.688000000     1.061000000
O    -3.218000000     5.457000000     1.432000000
H    -2.272000000     5.310000000     1.432000000
H    -3.594000000     4.595000000     1.252000000
O    -4.635000000     2.414000000    -4.294000000
H    -4.462000000     3.152000000    -3.710000000
H    -4.913000000     2.820000000    -5.116000000
O    -0.673000000     4.140000000     4.818000000
H    -0.941000000     3.538000000     4.124000000
H    -0.840000000     3.660000000     5.629000000
O     0.929000000     0.438000000     4.488000000
H     0.559000000     1.283000000     4.235000000
H     0.267000000    -0.202000000     4.226000000
O    -1.234000000    -6.535000000    -1.513000000
H    -1.884000000    -6.268000000    -0.863000000
H    -0.482000000    -5.967000000    -1.347000000
O    -6.974000000    -4.669000000    -1.149000000
H    -7.441000000    -5.072000000    -1.881000000
H    -6.653000000    -3.838000000    -1.499000000
O     2.050000000    -0.667000000    -2.416000000
H     1.620000000    -0.261000000    -3.169000000
H     1.350000000    -0.783000000    -1.774000000
O     0.002000000    -3.722000000    -2.628000000
H    -0.596000000    -3.407000000    -1.950000000
H     0.742000000    -4.089000000    -2.144000000
O     0.121000000     5.744000000    -1.530000000
H    -0.114000000     5.074000000    -0.888000000
H     0.330000000     6.517000000    -1.005000000
O    -6.333000000    -1.692000000    -2.203000000
H    -5.943000000    -0.941000000    -2.650000000
H    -6.809000000    -1.311000000    -1.466000000
O     4.130000000    -3.923000000    -0.096000000
H     5.029000000    -3.956000000    -0.422000000
H     4.189000000    -4.252000000     0.801000000
O    -1.033000000     2.311000000     2.296000000
H    -0.659000000     1.815000000     1.568000000
H    -1.878000000     1.894000000     2.460000000
O    -1.253000000    -4.833000000    -5.023000000
H    -1.059000000    -4.427000000    -4.178000000
H    -1.666000000    -5.667000000    -4.799000000
O    -1.181000000    -0.973000000     2.873000000
H    -0.925000000    -1.199000000     1.979000000
H    -2.034000000    -1.391000000     2.991000000
O     4.512000000     5.719000000     2.019000000
H     4.428000000     6.131000000     2.879000000
H     5.437000000     5.818000000     1.795000000
O     4.937000000    -1.354000000     0.835000000
H     4.360000000    -2.072000000     0.576000000
H     4.926000000    -1.371000000     1.792000000
O     0.518000000     0.482000000    -4.305000000
H     1.227000000     0.767000000    -4.882000000
H    -0.075000000    -0.005000000    -4.876000000
O     0.552000000     3.574000000    -4.400000000
H    -0.337000000     3.865000000    -4.197000000
H     0.723000000     2.871000000    -3.773000000
O     7.200000000     1.732000000     3.485000000
H     6.342000000     1.921000000     3.865000000
H     7.824000000     2.134000000     4.089000000
O     3.981000000     1.186000000    -2.212000000
H     3.491000000     0.364000000    -2.169000000
H     3.308000000     1.863000000    -2.270000000
O     3.552000000     6.071000000    -0.999000000
H     3.198000000     6.960000000    -1.003000000
H     3.847000000     5.934000000    -0.098000000
O    -4.821000000    -7.077000000    -2.317000000
H    -4.484000000    -7.215000000    -1.431000000
H    -4.918000000    -6.128000000    -2.391000000
O    -5.679000000    -6.437000000     0.826000000
H    -6.224000000    -5.968000000     0.195000000
H    -4.819000000    -6.024000000     0.754000000
O    -2.607000000    -7.093000000     1.559000000
H    -2.617000000    -7.098000000     2.516000000
H    -2.865000000    -6.203000000     1.321000000
O     3.496000000    -2.396000000     4.707000000
H     3.448000000    -3.117000000     4.080000000
H     4.366000000    -2.019000000     4.572000000
O     4.895000000     4.296000000    -3.702000000
H     4.523000000     3.640000000    -3.112000000
H     4.622000000     5.135000000    -3.329000000
O    -2.013000000     3.318000000    -3.053000000
H    -2.901000000     3.523000000    -2.760000000
H    -2.022000000     2.372000000    -3.199000000
O     1.303000000    -0.186000000     7.136000000
H     1.056000000    -1.058000000     6.830000000
H     1.329000000     0.349000000     6.342000000
O    -7.144000000     1.698000000    -0.719000000
H    -7.754000000     1.126000000    -1.185000000
H    -6.292000000     1.512000000    -1.114000000
O    -0.483000000     4.981000000     1.139000000
H    -0.365000000     4.187000000     1.661000000
H     0.177000000     5.588000000     1.474000000
O     1.664000000    -4.687000000    -0.791000000
H     1.753000000    -5.460000000    -0.235000000
H     2.537000000    -4.294000000    -0.797000000
O    -4.067000000     3.002000000     0.609000000
H    -4.309000000     2.651000000     1.466000000
H    -3.688000000     2.257000000     0.143000000
O     7.475000000     1.538000000     0.620000000
H     7.141000000     1.671000000     1.507000000
H     7.021000000     0.756000000     0.307000000
O    -5.643000000    -0.082000000    -4.407000000
H    -5.564000000    -0.553000000    -5.236000000
H    -5.237000000     0.768000000    -4.575000000
O     4.505000000     3.058000000     3.976000000
H     4.204000000     2.151000000     4.026000000
H     4.366000000     3.306000000     3.062000000
O     6.723000000    -0.928000000    -1.131000000
H     6.034000000    -1.039000000    -0.476000000
H     6.987000000    -1.820000000    -1.354000000
O     2.423000000     3.868000000    -2.314000000
H     1.686000000     4.269000000    -2.774000000
H     2.700000000     4.530000000    -1.680000000
O    -3.606000000    -4.503000000     0.447000000
H    -3.207000000    -4.175000000     1.253000000
H    -3.060000000    -4.145000000    -0.253000000
O    -4.536000000    -2.974000000    -5.437000000
H    -4.307000000    -3.082000000    -4.514000000
H    -3.696000000    -2.847000000    -5.878000000
O    -0.951000000    -4.749000000     2.474000000
H    -1.520000000    -5.186000000     3.106000000
H    -0.320000000    -4.269000000     3.011000000
O    -4.684000000    -3.791000000    -2.602000000
H    -3.787000000    -3.603000000    -2.325000000
H    -5.165000000    -2.983000000    -2.420000000
O    -3.957000000     0.449000000     1.726000000
H    -3.944000000    -0.304000000     1.135000000
H    -3.675000000     0.098000000     2.570000000
O     6.122000000    -1.431000000     3.284000000
H     6.669000000    -2.215000000     3.234000000
H     6.697000000    -0.761000000     3.654000000
O    -4.705000000     4.254000000    -2.411000000
H    -5.487000000     4.803000000    -2.357000000
H    -4.688000000     3.778000000    -1.580000000
O    -5.345000000    -2.239000000     0.536000000
H    -4.637000000    -1.951000000    -0.039000000
H    -5.327000000    -3.194000000     0.479000000
O    -4.721000000     0.973000000    -1.755000000
H    -4.838000000     1.072000000    -2.700000000
H    -4.385000000     0.084000000    -1.646000000
O     4.041000000     0.330000000     3.769000000
H     3.260000000    -0.224000000     3.795000000
H     4.730000000    -0.244000000     3.434000000
