144
-2810.64038
O     2.206000000     5.221000000    -1.213000000
H     2.584000000     6.036000000    -1.543000000
H     2.947000000     4.617000000    -1.164000000
O     2.354000000     4.458000000     1.815000000
H     3.286000000     4.335000000     1.996000000
H     2.288000000     5.360000000     1.503000000
O    -3.162000000     3.215000000     1.178000000
H    -2.848000000     3.279000000     2.080000000
H    -3.680000000     2.410000000     1.161000000
O    -2.205000000    -0.251000000     2.737000000
H    -1.820000000     0.178000000     1.973000000
H    -2.976000000    -0.703000000     2.395000000
O    -6.636000000    -4.033000000    -0.840000000
H    -6.987000000    -4.684000000    -1.448000000
H    -5.728000000    -4.300000000    -0.700000000
O     3.638000000     3.868000000     5.430000000
H     3.203000000     3.562000000     4.634000000
H     4.272000000     3.181000000     5.635000000
O    -0.386000000    -2.639000000    -4.638000000
H    -1.200000000    -2.196000000    -4.875000000
H    -0.608000000    -3.143000000    -3.855000000
O    -1.810000000    -3.979000000    -2.812000000
H    -2.353000000    -3.332000000    -2.363000000
H    -1.410000000    -4.488000000    -2.107000000
O     0.000000000     1.454000000     4.593000000
H     0.117000000     0.506000000     4.539000000
H     0.884000000     1.797000000     4.728000000
O    -3.002000000     4.274000000    -1.522000000
H    -2.955000000     3.886000000    -0.648000000
H    -2.671000000     3.590000000    -2.105000000
O     1.472000000    -0.293000000    -2.425000000
H     1.263000000     0.355000000    -1.752000000
H     0.699000000    -0.857000000    -2.463000000
O    -2.257000000     3.309000000     3.731000000
H    -1.687000000     2.558000000     3.895000000
H    -2.532000000     3.596000000     4.602000000
O     4.625000000     3.741000000    -0.644000000
H     5.525000000     3.727000000    -0.320000000
H     4.088000000     3.580000000     0.132000000
O     5.424000000     1.330000000     4.282000000
H     5.785000000     1.224000000     3.402000000
H     4.533000000     0.984000000     4.219000000
O    -5.256000000    -1.030000000     3.440000000
H    -5.945000000    -1.478000000     3.932000000
H    -4.785000000    -1.734000000     2.994000000
O    -3.983000000    -4.903000000    -0.174000000
H    -3.047000000    -5.022000000    -0.335000000
H    -4.272000000    -5.741000000     0.188000000
O    -7.077000000     1.263000000    -3.100000000
H    -7.057000000     1.221000000    -4.056000000
H    -7.713000000     1.951000000    -2.904000000
O    -4.263000000     1.491000000    -3.095000000
H    -5.207000000     1.560000000    -2.949000000
H    -3.969000000     0.843000000    -2.454000000
O     0.480000000     4.491000000     3.822000000
H     0.961000000     4.395000000     3.000000000
H    -0.405000000     4.187000000     3.618000000
O    -0.813000000     2.130000000    -4.021000000
H     0.076000000     1.780000000    -4.076000000
H    -0.747000000     2.855000000    -3.400000000
O     2.859000000     0.604000000     4.786000000
H     2.483000000    -0.117000000     4.281000000
H     2.649000000     0.393000000     5.696000000
O     2.642000000     1.838000000    -4.474000000
H     2.565000000     1.988000000    -5.416000000
H     2.683000000     0.885000000    -4.386000000
O    -4.043000000    -1.785000000    -5.230000000
H    -4.177000000    -2.108000000    -4.339000000
H    -3.306000000    -1.179000000    -5.156000000
O     2.758000000    -6.314000000    -1.493000000
H     2.103000000    -6.108000000    -0.825000000
H     2.385000000    -7.053000000    -1.973000000
O    -2.020000000     7.068000000     0.735000000
H    -2.459000000     7.236000000    -0.099000000
H    -1.326000000     6.446000000     0.519000000
O     2.866000000    -5.575000000     1.564000000
H     3.787000000    -5.403000000     1.760000000
H     2.402000000    -4.809000000     1.903000000
O    -4.743000000     0.631000000     1.320000000
H    -4.844000000    -0.064000000     1.970000000
H    -4.474000000     0.176000000     0.522000000
O     6.861000000     1.563000000     1.148000000
H     6.651000000     2.360000000     0.662000000
H     7.112000000     0.931000000     0.474000000
O     6.615000000    -1.776000000    -2.025000000
H     5.663000000    -1.689000000    -2.075000000
H     6.757000000    -2.652000000    -1.666000000
O    -0.120000000     5.126000000     0.253000000
H     0.086000000     4.270000000     0.630000000
H     0.721000000     5.455000000    -0.066000000
O     4.033000000    -1.493000000    -1.947000000
H     3.865000000    -2.379000000    -2.268000000
H     3.230000000    -1.011000000    -2.145000000
O    -7.643000000     0.021000000     1.722000000
H    -7.164000000     0.230000000     0.920000000
H    -6.972000000     0.006000000     2.405000000
O    -4.271000000     5.691000000     1.334000000
H    -3.621000000     6.377000000     1.181000000
H    -3.780000000     4.873000000     1.252000000
O     4.987000000     4.497000000     2.387000000
H     5.133000000     4.381000000     3.325000000
H     5.783000000     4.924000000     2.070000000
O     4.927000000    -1.658000000     0.729000000
H     4.675000000    -1.454000000    -0.172000000
H     5.883000000    -1.604000000     0.728000000
O    -0.156000000     4.472000000    -2.462000000
H    -0.771000000     4.805000000    -1.809000000
H     0.708000000     4.671000000    -2.101000000
O    -0.698000000    -6.087000000    -1.023000000
H    -0.710000000    -6.082000000    -0.066000000
H    -0.907000000    -6.990000000    -1.262000000
O     4.820000000     3.132000000    -3.361000000
H     4.096000000     2.638000000    -3.747000000
H     4.626000000     3.148000000    -2.424000000
O    -4.039000000    -5.119000000    -4.275000000
H    -4.953000000    -4.863000000    -4.156000000
H    -3.574000000    -4.689000000    -3.557000000
O    -1.950000000    -4.513000000     2.690000000
H    -1.739000000    -5.146000000     2.003000000
H    -1.307000000    -4.684000000     3.378000000
O    -4.897000000    -2.691000000    -2.686000000
H    -4.208000000    -2.459000000    -2.064000000
H    -5.694000000    -2.730000000    -2.158000000
O    -5.046000000     2.680000000     3.591000000
H    -4.454000000     2.025000000     3.221000000
H    -5.349000000     2.293000000     4.412000000
O    -2.048000000    -0.125000000    -5.560000000
H    -1.951000000     0.534000000    -4.872000000
H    -1.588000000     0.246000000    -6.312000000
O     1.889000000    -3.234000000     3.203000000
H     1.551000000    -2.502000000     3.718000000
H     2.814000000    -3.028000000     3.073000000
O     4.470000000    -2.644000000     3.153000000
H     4.862000000    -1.998000000     3.740000000
H     4.644000000    -2.306000000     2.274000000
O    -3.765000000    -2.658000000     1.982000000
H    -4.004000000    -2.962000000     1.107000000
H    -3.078000000    -3.261000000     2.266000000
O    -6.563000000    -0.394000000    -1.164000000
H    -6.777000000     0.200000000    -1.884000000
H    -5.616000000    -0.515000000    -1.228000000
O    -0.024000000    -1.257000000     4.303000000
H    -0.472000000    -1.637000000     5.058000000
H    -0.697000000    -1.208000000     3.624000000
