144
-2826.56010
O     3.066000000     5.380000000    -1.996000000
H     2.489000000     5.838000000    -2.608000000
H     3.026000000     5.901000000    -1.194000000
O    -2.718000000     4.900000000     1.330000000
H    -1.880000000     4.884000000     1.792000000
H    -3.219000000     4.182000000     1.718000000
O     7.185000000     2.150000000    -1.080000000
H     7.169000000     2.380000000    -2.009000000
H     7.886000000     1.503000000    -1.006000000
O    -3.372000000     1.423000000     2.317000000
H    -2.746000000     2.147000000     2.331000000
H    -3.073000000     0.835000000     3.011000000
O    -1.379000000    -6.555000000    -4.211000000
H    -1.356000000    -5.860000000    -3.553000000
H    -2.305000000    -6.784000000    -4.285000000
O    -5.218000000    -3.014000000    -4.555000000
H    -4.602000000    -2.353000000    -4.870000000
H    -4.790000000    -3.394000000    -3.787000000
O    -5.022000000    -2.486000000     1.263000000
H    -5.571000000    -1.935000000     0.705000000
H    -4.253000000    -2.679000000     0.726000000
O     0.119000000    -2.748000000    -3.160000000
H    -0.481000000    -2.169000000    -3.630000000
H    -0.450000000    -3.286000000    -2.610000000
O    -1.331000000    -4.871000000    -1.851000000
H    -1.848000000    -4.147000000    -1.497000000
H    -0.967000000    -5.305000000    -1.079000000
O    -5.314000000    -1.956000000     3.951000000
H    -5.094000000    -2.158000000     3.041000000
H    -5.713000000    -1.086000000     3.913000000
O    -2.010000000     4.979000000    -1.440000000
H    -1.924000000     5.225000000    -0.519000000
H    -1.342000000     4.306000000    -1.571000000
O     2.354000000    -4.531000000    -1.181000000
H     2.143000000    -4.809000000    -0.289000000
H     1.663000000    -4.914000000    -1.720000000
O    -0.060000000     0.465000000    -3.006000000
H    -0.242000000    -0.281000000    -2.436000000
H     0.768000000     0.819000000    -2.681000000
O    -1.950000000     3.320000000     3.733000000
H    -1.171000000     3.313000000     4.289000000
H    -2.683000000     3.262000000     4.347000000
O     6.834000000     1.529000000     4.401000000
H     6.541000000     2.309000000     3.929000000
H     6.393000000     0.803000000     3.961000000
O    -4.557000000    -5.626000000     0.316000000
H    -4.069000000    -6.449000000     0.297000000
H    -3.899000000    -4.963000000     0.525000000
O     2.394000000    -1.957000000    -4.323000000
H     1.700000000    -2.295000000    -3.756000000
H     1.930000000    -1.585000000    -5.073000000
O    -5.772000000     2.202000000    -2.771000000
H    -6.681000000     2.018000000    -3.007000000
H    -5.359000000     1.340000000    -2.719000000
O    -7.471000000    -3.564000000    -2.256000000
H    -6.769000000    -3.982000000    -2.754000000
H    -7.018000000    -2.995000000    -1.634000000
O     5.457000000    -0.687000000     3.854000000
H     5.795000000    -1.497000000     3.473000000
H     5.164000000    -0.937000000     4.730000000
O    -3.699000000     3.106000000    -4.873000000
H    -4.120000000     3.107000000    -4.013000000
H    -3.562000000     4.032000000    -5.074000000
O    -5.265000000    -0.040000000    -5.611000000
H    -5.146000000    -0.025000000    -4.661000000
H    -5.785000000     0.742000000    -5.799000000
O     3.014000000     1.710000000    -3.037000000
H     2.660000000     1.683000000    -3.926000000
H     3.706000000     2.371000000    -3.075000000
O     4.718000000    -3.886000000     2.452000000
H     4.715000000    -3.077000000     1.939000000
H     5.585000000    -4.262000000     2.299000000
O    -4.190000000    -0.111000000    -3.233000000
H    -3.868000000    -0.327000000    -2.358000000
H    -3.403000000    -0.087000000    -3.778000000
O     2.357000000    -5.029000000     1.701000000
H     2.110000000    -5.275000000     2.593000000
H     3.189000000    -4.566000000     1.802000000
O     5.467000000     1.366000000     0.743000000
H     6.042000000     1.394000000    -0.022000000
H     4.630000000     1.707000000     0.426000000
O    -5.065000000     1.177000000     0.077000000
H    -4.545000000     1.169000000     0.881000000
H    -4.579000000     0.617000000    -0.528000000
O     1.582000000    -5.257000000     4.158000000
H     1.205000000    -4.424000000     3.875000000
H     2.403000000    -5.014000000     4.587000000
O     5.313000000     3.467000000     2.615000000
H     6.249000000     3.578000000     2.451000000
H     5.029000000     2.830000000     1.959000000
O     7.016000000    -0.350000000    -2.582000000
H     6.067000000    -0.463000000    -2.639000000
H     7.273000000    -0.045000000    -3.452000000
O     0.137000000     4.841000000     1.694000000
H     0.922000000     4.619000000     1.193000000
H     0.442000000     5.463000000     2.354000000
O     4.636000000    -3.006000000    -1.531000000
H     3.749000000    -3.293000000    -1.312000000
H     4.591000000    -2.775000000    -2.459000000
O    -4.998000000     4.453000000    -0.924000000
H    -4.057000000     4.480000000    -1.099000000
H    -5.326000000     3.754000000    -1.491000000
O     3.112000000     5.504000000     2.426000000
H     3.700000000     4.761000000     2.556000000
H     3.433000000     5.927000000     1.629000000
O     4.564000000    -1.513000000     1.102000000
H     4.955000000    -1.835000000     0.290000000
H     4.706000000    -0.566000000     1.078000000
O    -0.121000000     3.339000000    -2.607000000
H    -0.450000000     2.441000000    -2.563000000
H     0.674000000     3.277000000    -3.136000000
O     0.053000000    -5.537000000     0.544000000
H    -0.378000000    -6.353000000     0.798000000
H     0.879000000    -5.542000000     1.027000000
O     5.260000000     3.968000000    -2.135000000
H     4.426000000     4.430000000    -2.220000000
H     5.693000000     4.389000000    -1.392000000
O    -4.590000000    -4.106000000    -2.044000000
H    -4.826000000    -4.713000000    -1.343000000
H    -3.976000000    -3.496000000    -1.635000000
O    -2.361000000    -4.649000000     1.680000000
H    -1.565000000    -4.532000000     1.161000000
H    -2.046000000    -4.899000000     2.549000000
O    -6.513000000    -1.092000000    -1.225000000
H    -5.678000000    -0.728000000    -1.522000000
H    -6.989000000    -0.341000000    -0.871000000
O    -1.773000000    -0.999000000    -4.619000000
H    -1.165000000    -0.283000000    -4.433000000
H    -1.678000000    -1.155000000    -5.559000000
O     1.083000000    -2.623000000     3.520000000
H     0.548000000    -2.334000000     2.781000000
H     1.796000000    -1.986000000     3.564000000
O     4.489000000    -0.728000000    -3.465000000
H     3.825000000    -1.257000000    -3.906000000
H     4.036000000     0.084000000    -3.237000000
O     2.701000000    -0.465000000     3.398000000
H     2.799000000     0.074000000     4.183000000
H     3.589000000    -0.761000000     3.199000000
O    -7.940000000     1.047000000    -0.078000000
H    -7.054000000     1.239000000     0.230000000
H    -8.511000000     1.364000000     0.621000000
O    -1.122000000     0.542000000     4.685000000
H    -0.216000000     0.299000000     4.874000000
H    -1.091000000     0.916000000     3.804000000
