144
-2824.89166
O     3.356000000     5.023000000     5.345000000
H     2.427000000     4.901000000     5.541000000
H     3.776000000     5.085000000     6.203000000
O    -2.716000000    -0.086000000     3.977000000
H    -2.013000000    -0.146000000     3.330000000
H    -2.946000000    -0.996000000     4.167000000
O    -4.012000000    -5.386000000    -0.425000000
H    -3.897000000    -6.148000000    -0.993000000
H    -4.027000000    -4.641000000    -1.025000000
O    -3.036000000    -5.901000000    -4.682000000
H    -2.961000000    -5.203000000    -4.031000000
H    -3.833000000    -5.690000000    -5.168000000
O    -3.953000000    -1.619000000     0.924000000
H    -3.933000000    -1.703000000    -0.029000000
H    -3.100000000    -1.946000000     1.211000000
O     2.968000000    -0.626000000     5.140000000
H     2.615000000    -1.380000000     5.612000000
H     3.614000000    -0.251000000     5.738000000
O     0.553000000     2.775000000     5.712000000
H     0.043000000     3.129000000     4.983000000
H     0.629000000     3.504000000     6.328000000
O     5.780000000     1.345000000     3.734000000
H     6.502000000     1.713000000     4.243000000
H     5.458000000     0.617000000     4.266000000
O     3.720000000     1.577000000    -2.403000000
H     3.699000000     0.623000000    -2.472000000
H     4.077000000     1.870000000    -3.241000000
O     0.434000000    -2.883000000    -4.657000000
H     0.168000000    -3.783000000    -4.846000000
H    -0.083000000    -2.638000000    -3.889000000
O    -1.687000000    -7.527000000    -2.812000000
H    -1.410000000    -6.763000000    -2.306000000
H    -2.244000000    -7.168000000    -3.502000000
O     4.276000000    -1.173000000    -2.880000000
H     4.103000000    -1.251000000    -3.818000000
H     5.208000000    -1.371000000    -2.792000000
O     6.306000000     1.416000000    -1.049000000
H     5.476000000     1.776000000    -1.362000000
H     6.963000000     2.054000000    -1.325000000
O    -6.520000000    -2.503000000    -4.228000000
H    -7.193000000    -2.115000000    -4.787000000
H    -6.542000000    -1.978000000    -3.428000000
O    -4.431000000    -3.666000000    -2.636000000
H    -3.751000000    -3.039000000    -2.389000000
H    -5.044000000    -3.158000000    -3.167000000
O     2.934000000     4.966000000     0.936000000
H     1.994000000     4.927000000     1.116000000
H     3.343000000     4.599000000     1.719000000
O    -5.436000000     0.996000000    -5.465000000
H    -4.756000000     0.333000000    -5.345000000
H    -4.979000000     1.830000000    -5.354000000
O    -3.129000000     3.731000000    -0.904000000
H    -3.640000000     4.328000000    -1.450000000
H    -3.420000000     3.915000000    -0.011000000
O     3.188000000    -4.196000000     1.656000000
H     3.737000000    -4.578000000     2.341000000
H     3.073000000    -3.283000000     1.922000000
O     3.327000000    -1.404000000     2.568000000
H     2.872000000    -0.698000000     2.109000000
H     3.101000000    -1.276000000     3.489000000
O    -1.777000000    -0.428000000    -6.873000000
H    -1.733000000    -0.310000000    -5.924000000
H    -1.637000000     0.449000000    -7.230000000
O     5.822000000    -2.193000000     1.682000000
H     4.958000000    -1.785000000     1.628000000
H     6.436000000    -1.472000000     1.544000000
O     4.235000000    -5.375000000    -0.512000000
H     3.879000000    -5.076000000     0.325000000
H     3.530000000    -5.217000000    -1.141000000
O     0.110000000     0.096000000     5.897000000
H     0.955000000    -0.075000000     5.482000000
H     0.067000000     1.050000000     5.970000000
O     7.155000000     0.218000000     1.411000000
H     7.084000000     0.696000000     0.584000000
H     6.586000000     0.696000000     2.014000000
O     3.907000000     4.336000000    -1.647000000
H     3.823000000     4.353000000    -0.694000000
H     3.308000000     3.644000000    -1.928000000
O     6.476000000     4.784000000     1.292000000
H     6.428000000     5.646000000     1.706000000
H     5.948000000     4.218000000     1.855000000
O     0.912000000    -1.995000000    -7.318000000
H     1.106000000    -2.896000000    -7.574000000
H     0.814000000    -2.032000000    -6.367000000
O    -0.754000000    -5.150000000    -1.595000000
H    -0.122000000    -4.842000000    -0.947000000
H    -1.147000000    -4.351000000    -1.947000000
O    -6.050000000    -0.581000000     2.341000000
H    -6.909000000    -0.775000000     1.965000000
H    -5.436000000    -1.082000000     1.805000000
O     3.318000000    -0.505000000    -5.423000000
H     2.537000000    -0.008000000    -5.181000000
H     3.748000000     0.033000000    -6.088000000
O    -0.754000000     3.856000000    -3.823000000
H    -0.612000000     3.152000000    -3.190000000
H    -1.142000000     4.565000000    -3.310000000
O    -2.043000000    -0.259000000    -4.127000000
H    -1.166000000     0.095000000    -3.975000000
H    -2.219000000    -0.802000000    -3.359000000
O     0.190000000     5.211000000     0.892000000
H    -0.366000000     5.927000000     0.585000000
H     0.219000000     4.598000000     0.158000000
O    -3.531000000     3.872000000     1.817000000
H    -3.811000000     3.128000000     2.351000000
H    -4.082000000     4.598000000     2.110000000
O     0.680000000    -4.220000000     0.731000000
H     1.594000000    -4.497000000     0.675000000
H     0.495000000    -4.194000000     1.670000000
O    -6.614000000     3.027000000     1.109000000
H    -6.647000000     3.963000000     0.909000000
H    -5.798000000     2.915000000     1.596000000
O     4.417000000     4.003000000     3.091000000
H     4.325000000     4.554000000     3.868000000
H     4.607000000     3.131000000     3.437000000
O     2.176000000    -5.036000000    -2.306000000
H     2.380000000    -4.147000000    -2.595000000
H     2.363000000    -5.584000000    -3.068000000
O    -0.342000000     3.394000000    -0.977000000
H    -0.319000000     2.582000000    -0.470000000
H    -1.270000000     3.628000000    -1.011000000
O    -7.721000000    -3.210000000    -1.108000000
H    -7.587000000    -3.962000000    -0.533000000
H    -6.898000000    -2.723000000    -1.062000000
O     3.308000000    -3.387000000    -5.155000000
H     3.551000000    -2.712000000    -5.789000000
H     2.471000000    -3.091000000    -4.798000000
O    -0.606000000     4.090000000     3.548000000
H    -1.551000000     4.231000000     3.601000000
H    -0.382000000     4.299000000     2.642000000
O    -5.647000000    -0.821000000    -1.853000000
H    -5.933000000     0.090000000    -1.917000000
H    -4.698000000    -0.767000000    -1.738000000
O    -5.023000000     2.076000000    -2.288000000
H    -4.462000000     2.506000000    -1.643000000
H    -4.661000000     2.342000000    -3.134000000
O     0.390000000     0.897000000    -3.563000000
H     1.004000000     1.305000000    -4.174000000
H     0.918000000     0.702000000    -2.789000000
O    -1.385000000    -2.343000000     1.847000000
H    -0.613000000    -2.330000000     1.281000000
H    -1.260000000    -3.111000000     2.405000000
O    -4.535000000     1.516000000     2.846000000
H    -5.082000000     0.838000000     2.448000000
H    -3.954000000     1.037000000     3.438000000
