144
-2829.94186
O     5.037000000    -0.576000000     0.099000000
H     5.675000000    -1.145000000     0.531000000
H     4.231000000    -0.696000000     0.602000000
O     3.797000000     2.367000000     1.744000000
H     2.879000000     2.620000000     1.645000000
H     3.804000000     1.788000000     2.507000000
O    -0.927000000     2.578000000    -1.520000000
H    -0.364000000     1.991000000    -1.015000000
H    -0.330000000     3.023000000    -2.122000000
O    -4.707000000    -0.218000000     3.319000000
H    -5.455000000    -0.040000000     3.889000000
H    -4.178000000    -0.848000000     3.807000000
O    -0.412000000    -6.070000000    -1.474000000
H    -0.625000000    -6.739000000    -2.125000000
H    -1.131000000    -5.441000000    -1.532000000
O    -0.282000000    -6.402000000     1.709000000
H    -0.128000000    -5.778000000     1.000000000
H    -1.150000000    -6.174000000     2.044000000
O     4.116000000     2.515000000    -2.565000000
H     4.779000000     1.955000000    -2.162000000
H     4.061000000     2.209000000    -3.470000000
O     1.046000000     1.407000000     7.568000000
H     1.464000000     0.546000000     7.585000000
H     0.243000000     1.273000000     7.064000000
O    -0.560000000    -4.689000000    -4.698000000
H    -0.820000000    -3.950000000    -4.147000000
H    -0.049000000    -5.252000000    -4.117000000
O    -2.480000000     4.740000000    -1.021000000
H    -1.957000000     5.404000000    -1.471000000
H    -2.065000000     3.910000000    -1.253000000
O     0.621000000    -3.704000000     2.547000000
H     1.343000000    -3.425000000     1.984000000
H     1.046000000    -4.164000000     3.271000000
O     1.468000000    -5.165000000    -6.803000000
H     0.781000000    -4.522000000    -6.628000000
H     1.369000000    -5.817000000    -6.110000000
O     6.385000000     1.760000000    -0.615000000
H     5.546000000     1.466000000    -0.260000000
H     6.869000000     0.952000000    -0.785000000
O    -5.090000000     1.032000000     0.033000000
H    -4.948000000     0.448000000     0.778000000
H    -5.956000000     0.792000000    -0.297000000
O     3.084000000    -2.777000000    -2.792000000
H     3.605000000    -2.131000000    -3.269000000
H     2.205000000    -2.697000000    -3.162000000
O    -5.019000000    -3.447000000    -1.214000000
H    -5.109000000    -2.970000000    -0.389000000
H    -4.997000000    -2.763000000    -1.884000000
O     1.912000000     4.360000000     3.847000000
H     1.645000000     5.142000000     4.331000000
H     2.760000000     4.124000000     4.222000000
O    -2.227000000    -4.256000000    -1.284000000
H    -3.104000000    -3.890000000    -1.171000000
H    -1.748000000    -3.584000000    -1.770000000
O    -3.781000000    -2.833000000    -6.785000000
H    -3.053000000    -2.613000000    -6.204000000
H    -3.762000000    -2.154000000    -7.460000000
O     5.470000000     4.147000000     2.764000000
H     4.846000000     3.540000000     2.365000000
H     5.096000000     4.343000000     3.623000000
O     5.093000000    -0.564000000    -3.081000000
H     5.703000000    -1.239000000    -3.379000000
H     5.010000000    -0.714000000    -2.139000000
O    -4.240000000     3.860000000     0.945000000
H    -4.546000000     3.016000000     0.612000000
H    -3.637000000     4.179000000     0.274000000
O    -5.271000000    -1.527000000    -3.780000000
H    -5.415000000    -0.693000000    -3.333000000
H    -4.349000000    -1.506000000    -4.036000000
O     3.737000000     0.696000000    -4.948000000
H     4.092000000     0.260000000    -5.722000000
H     4.127000000     0.228000000    -4.209000000
O    -2.889000000    -5.614000000     2.557000000
H    -2.619000000    -4.914000000     1.961000000
H    -3.656000000    -5.262000000     3.008000000
O     2.716000000     4.601000000    -1.257000000
H     3.325000000     3.906000000    -1.505000000
H     1.931000000     4.429000000    -1.777000000
O     1.196000000     1.415000000    -4.442000000
H     2.121000000     1.297000000    -4.660000000
H     0.855000000     0.525000000    -4.356000000
O    -2.340000000    -2.983000000     1.927000000
H    -1.411000000    -3.190000000     1.825000000
H    -2.367000000    -2.349000000     2.643000000
O    -0.423000000     3.037000000     5.124000000
H     0.322000000     3.288000000     4.578000000
H    -1.161000000     3.527000000     4.762000000
O    -2.345000000    -1.916000000    -4.764000000
H    -1.879000000    -2.193000000    -3.975000000
H    -1.822000000    -1.193000000    -5.111000000
O     1.054000000    -1.573000000     4.535000000
H     0.619000000    -2.018000000     3.807000000
H     0.398000000    -0.959000000     4.866000000
O     0.783000000     3.857000000    -3.404000000
H     0.016000000     4.238000000    -3.831000000
H     0.963000000     3.060000000    -3.902000000
O    -2.583000000     4.164000000     3.423000000
H    -3.084000000     4.486000000     4.173000000
H    -3.247000000     3.918000000     2.779000000
O     3.635000000    -3.316000000    -6.829000000
H     3.893000000    -3.457000000    -7.739000000
H     2.780000000    -3.740000000    -6.754000000
O     3.054000000     0.392000000     4.089000000
H     2.458000000    -0.070000000     4.679000000
H     3.734000000     0.744000000     4.663000000
O    -2.037000000    -7.526000000    -4.580000000
H    -2.888000000    -7.335000000    -4.184000000
H    -1.727000000    -6.679000000    -4.899000000
O     2.101000000    -5.944000000    -0.300000000
H     1.357000000    -5.901000000    -0.900000000
H     2.233000000    -5.040000000    -0.015000000
O     2.390000000    -3.207000000     0.043000000
H     2.825000000    -2.494000000     0.511000000
H     2.557000000    -3.024000000    -0.881000000
O     0.433000000    -2.202000000    -6.166000000
H     1.017000000    -1.743000000    -5.561000000
H    -0.122000000    -2.740000000    -5.601000000
O     3.068000000    -1.572000000     2.027000000
H     3.894000000    -2.040000000     2.148000000
H     3.106000000    -0.853000000     2.658000000
O    -2.541000000     0.956000000    -5.478000000
H    -2.981000000     1.422000000    -4.768000000
H    -2.049000000     1.634000000    -5.942000000
O    -1.721000000     6.050000000     1.606000000
H    -2.019000000     5.324000000     2.154000000
H    -1.015000000     5.677000000     1.077000000
O    -4.033000000     0.719000000    -2.345000000
H    -4.467000000     0.925000000    -1.517000000
H    -3.101000000     0.844000000    -2.164000000
O    -2.512000000    -1.581000000     4.361000000
H    -2.506000000    -2.176000000     5.111000000
H    -2.001000000    -0.825000000     4.651000000
O     4.245000000    -5.429000000    -3.104000000
H     4.109000000    -4.657000000    -2.554000000
H     4.490000000    -5.074000000    -3.958000000
O     0.890000000     4.790000000     0.962000000
H     1.101000000     4.568000000     1.869000000
H     1.720000000     5.088000000     0.590000000
O    -4.969000000    -1.836000000     1.112000000
H    -4.063000000    -2.124000000     1.002000000
H    -4.931000000    -1.191000000     1.819000000
O    -0.930000000     0.187000000     5.584000000
H    -1.278000000     0.323000000     6.465000000
H    -0.703000000     1.065000000     5.278000000
