144
-2787.39454
O     5.349000000     2.407000000    -0.124000000
H     4.548000000     2.753000000    -0.517000000
H     5.072000000     1.604000000     0.318000000
O    -1.628000000    -6.972000000    -3.301000000
H    -2.408000000    -7.407000000    -3.644000000
H    -0.926000000    -7.613000000    -3.416000000
O    -1.307000000     5.974000000     0.297000000
H    -1.759000000     5.162000000     0.069000000
H    -0.455000000     5.903000000    -0.133000000
O    -2.519000000    -2.770000000    -3.055000000
H    -2.321000000    -1.841000000    -3.173000000
H    -2.222000000    -2.967000000    -2.167000000
O     0.447000000     0.933000000    -2.901000000
H     1.338000000     0.821000000    -3.235000000
H     0.452000000     0.488000000    -2.054000000
O     2.878000000    -5.169000000     4.748000000
H     1.992000000    -4.878000000     4.532000000
H     3.365000000    -5.083000000     3.928000000
O    -5.015000000     3.936000000     1.882000000
H    -5.390000000     4.796000000     1.690000000
H    -5.159000000     3.817000000     2.821000000
O    -2.714000000     6.684000000     2.344000000
H    -2.120000000     6.378000000     1.659000000
H    -2.558000000     6.090000000     3.079000000
O     6.498000000    -2.110000000     1.441000000
H     6.275000000    -1.658000000     2.255000000
H     6.190000000    -3.007000000     1.572000000
O    -1.044000000    -4.542000000    -4.463000000
H    -1.124000000    -5.309000000    -3.895000000
H    -1.376000000    -3.817000000    -3.935000000
O     2.571000000    -4.288000000     2.064000000
H     2.039000000    -4.032000000     1.310000000
H     3.000000000    -5.098000000     1.789000000
O     0.154000000     3.007000000    -4.838000000
H    -0.669000000     2.891000000    -5.312000000
H     0.013000000     2.564000000    -4.001000000
O    -1.109000000     4.378000000     5.408000000
H    -0.842000000     5.112000000     5.961000000
H    -0.369000000     3.772000000     5.440000000
O     3.402000000     2.693000000    -2.137000000
H     2.992000000     3.414000000    -2.614000000
H     3.041000000     1.903000000    -2.540000000
O     2.861000000    -1.618000000     3.264000000
H     2.817000000    -2.568000000     3.158000000
H     1.950000000    -1.346000000     3.373000000
O    -0.097000000    -4.673000000     4.916000000
H    -0.498000000    -4.918000000     4.082000000
H    -0.399000000    -5.340000000     5.532000000
O     5.953000000     4.855000000     1.368000000
H     5.192000000     5.372000000     1.631000000
H     5.597000000     3.991000000     1.160000000
O     0.864000000     5.642000000    -3.840000000
H     0.826000000     4.722000000    -4.103000000
H    -0.049000000     5.931000000    -3.850000000
O     3.479000000     1.565000000     3.294000000
H     4.188000000     2.070000000     3.692000000
H     3.428000000     0.767000000     3.820000000
O    -6.476000000    -0.306000000     1.006000000
H    -6.623000000     0.361000000     0.336000000
H    -6.254000000    -1.096000000     0.513000000
O    -3.242000000     3.625000000    -3.011000000
H    -3.767000000     2.848000000    -2.814000000
H    -3.105000000     4.042000000    -2.161000000
O     4.564000000     0.122000000     0.982000000
H     4.317000000     0.262000000     1.896000000
H     4.717000000    -0.820000000     0.916000000
O    -2.583000000    -5.776000000    -0.780000000
H    -2.089000000    -6.229000000    -1.463000000
H    -1.981000000    -5.107000000    -0.454000000
O    -2.537000000    -1.269000000     2.716000000
H    -3.097000000    -1.231000000     3.492000000
H    -2.896000000    -1.988000000     2.196000000
O    -3.176000000     3.854000000    -0.068000000
H    -3.783000000     4.177000000     0.598000000
H    -3.519000000     2.993000000    -0.308000000
O    -3.344000000    -3.516000000     1.363000000
H    -4.193000000    -3.243000000     1.013000000
H    -2.755000000    -3.492000000     0.609000000
O    -1.926000000    -0.337000000    -4.161000000
H    -2.427000000     0.306000000    -4.661000000
H    -1.163000000     0.146000000    -3.845000000
O    -4.377000000     1.013000000    -1.789000000
H    -3.708000000     0.348000000    -1.627000000
H    -4.673000000     0.842000000    -2.683000000
O    -3.541000000    -7.835000000     0.985000000
H    -4.485000000    -7.741000000     1.113000000
H    -3.344000000    -7.273000000     0.235000000
O    -5.704000000    -3.024000000     0.208000000
H    -5.478000000    -3.198000000    -0.706000000
H    -6.513000000    -3.515000000     0.352000000
O     3.352000000    -6.468000000     0.436000000
H     3.897000000    -7.216000000     0.193000000
H     2.696000000    -6.415000000    -0.260000000
O    -5.619000000    -3.108000000    -2.518000000
H    -6.195000000    -2.351000000    -2.626000000
H    -5.103000000    -3.134000000    -3.324000000
O     1.124000000     2.573000000     5.276000000
H     1.744000000     2.833000000     4.594000000
H     1.478000000     1.754000000     5.622000000
O     6.087000000     2.774000000    -3.180000000
H     5.265000000     2.698000000    -2.697000000
H     6.082000000     3.668000000    -3.523000000
O    -4.519000000    -5.577000000    -2.905000000
H    -5.022000000    -4.792000000    -2.689000000
H    -3.748000000    -5.531000000    -2.340000000
O     5.921000000    -2.011000000    -1.388000000
H     6.306000000    -2.152000000    -0.523000000
H     5.135000000    -2.558000000    -1.392000000
O     3.320000000    -2.175000000    -3.410000000
H     3.643000000    -2.889000000    -2.860000000
H     3.015000000    -2.607000000    -4.208000000
O     3.565000000     6.117000000     2.442000000
H     2.708000000     5.913000000     2.816000000
H     3.557000000     7.068000000     2.330000000
O    -5.759000000     1.504000000     3.142000000
H    -6.447000000     2.130000000     2.917000000
H    -5.815000000     0.831000000     2.464000000
O     3.660000000    -3.487000000    -0.992000000
H     3.919000000    -4.368000000    -0.719000000
H     2.814000000    -3.345000000    -0.569000000
O     0.447000000    -6.151000000     1.378000000
H     1.185000000    -6.663000000     1.046000000
H     0.434000000    -5.367000000     0.829000000
O    -2.080000000    -5.447000000     2.904000000
H    -1.245000000    -5.638000000     2.477000000
H    -2.473000000    -4.761000000     2.364000000
O     2.910000000     0.486000000    -3.796000000
H     2.901000000    -0.330000000    -3.296000000
H     3.683000000     0.415000000    -4.357000000
O     1.210000000     6.476000000    -0.976000000
H     1.283000000     6.248000000    -1.902000000
H     1.668000000     7.313000000    -0.898000000
O    -1.536000000     7.006000000    -3.363000000
H    -0.832000000     7.422000000    -2.866000000
H    -1.570000000     7.494000000    -4.185000000
O     0.420000000    -8.338000000    -1.153000000
H     0.359000000    -7.428000000    -0.864000000
H     1.351000000    -8.470000000    -1.334000000
O     1.607000000    -5.768000000    -1.518000000
H     1.200000000    -4.940000000    -1.262000000
H     1.943000000    -5.607000000    -2.399000000
O    -0.145000000     0.246000000     3.001000000
H     0.308000000     0.391000000     2.170000000
H    -0.862000000    -0.348000000     2.783000000
