144
-2823.30259
O    -0.287000000    -5.887000000    -4.923000000
H    -0.272000000    -6.016000000    -3.975000000
H    -1.103000000    -5.414000000    -5.087000000
O    -3.132000000    -0.320000000    -2.178000000
H    -3.822000000    -0.983000000    -2.181000000
H    -2.861000000    -0.261000000    -1.262000000
O    -1.548000000    -8.398000000    -0.864000000
H    -1.929000000    -7.561000000    -0.599000000
H    -0.606000000    -8.233000000    -0.898000000
O    -0.356000000     7.182000000     1.684000000
H    -0.733000000     7.195000000     0.804000000
H     0.358000000     7.819000000     1.648000000
O     6.379000000     2.188000000     1.019000000
H     5.541000000     1.961000000     0.614000000
H     6.139000000     2.659000000     1.817000000
O    -0.051000000     5.491000000     3.851000000
H     0.755000000     4.994000000     3.712000000
H    -0.248000000     5.872000000     2.995000000
O    -1.969000000     0.667000000    -4.612000000
H    -1.170000000     1.193000000    -4.636000000
H    -2.187000000     0.604000000    -3.682000000
O     3.805000000    -2.684000000     2.242000000
H     4.577000000    -2.149000000     2.425000000
H     3.089000000    -2.053000000     2.166000000
O    -4.077000000     3.437000000    -2.694000000
H    -4.022000000     3.569000000    -3.640000000
H    -3.211000000     3.682000000    -2.368000000
O    -3.881000000     6.259000000     0.760000000
H    -4.404000000     7.021000000     0.511000000
H    -3.056000000     6.370000000     0.288000000
O     4.397000000    -3.150000000    -2.434000000
H     4.479000000    -3.567000000    -3.292000000
H     4.916000000    -2.349000000    -2.507000000
O    -4.684000000     1.898000000     3.105000000
H    -4.895000000     2.162000000     2.209000000
H    -3.799000000     1.538000000     3.046000000
O    -0.107000000    -5.570000000     3.379000000
H    -0.811000000    -4.923000000     3.334000000
H     0.251000000    -5.597000000     2.491000000
O     0.224000000     2.762000000    -4.872000000
H     1.062000000     2.772000000    -5.335000000
H     0.327000000     3.412000000    -4.177000000
O     2.202000000     3.851000000     3.582000000
H     2.737000000     3.316000000     4.169000000
H     2.256000000     3.406000000     2.737000000
O     3.418000000    -4.388000000     0.133000000
H     3.632000000    -3.731000000     0.796000000
H     3.721000000    -4.005000000    -0.690000000
O     2.235000000    -4.729000000    -5.251000000
H     1.597000000    -5.443000000    -5.273000000
H     1.820000000    -4.055000000    -4.713000000
O    -3.016000000    -7.539000000    -3.205000000
H    -2.870000000    -6.665000000    -3.567000000
H    -2.236000000    -7.713000000    -2.677000000
O     0.975000000    -5.523000000     0.667000000
H     1.781000000    -5.014000000     0.586000000
H     0.274000000    -4.885000000     0.529000000
O     0.593000000     5.042000000    -2.835000000
H     0.516000000     5.736000000    -3.490000000
H     0.826000000     5.500000000    -2.028000000
O    -4.612000000    -0.813000000     0.615000000
H    -5.128000000    -0.019000000     0.473000000
H    -5.134000000    -1.511000000     0.220000000
O     4.198000000     4.378000000     1.205000000
H     4.930000000     4.611000000     1.776000000
H     4.047000000     3.449000000     1.377000000
O    -0.284000000    -6.053000000    -2.301000000
H    -0.242000000    -5.269000000    -1.752000000
H     0.178000000    -6.723000000    -1.797000000
O    -4.792000000     2.026000000     0.361000000
H    -4.295000000     2.625000000    -0.196000000
H    -5.707000000     2.271000000     0.219000000
O    -2.839000000    -5.308000000    -0.197000000
H    -2.121000000    -4.808000000     0.191000000
H    -3.014000000    -4.868000000    -1.029000000
O    -0.903000000    -2.134000000    -6.360000000
H    -1.127000000    -1.930000000    -5.452000000
H     0.054000000    -2.098000000    -6.384000000
O    -3.729000000    -1.320000000     3.295000000
H    -4.177000000    -0.874000000     2.576000000
H    -3.125000000    -0.665000000     3.644000000
O    -1.511000000     7.367000000    -0.847000000
H    -1.704000000     6.779000000    -1.577000000
H    -1.532000000     8.243000000    -1.233000000
O     1.275000000    -0.577000000    -5.481000000
H     1.860000000     0.004000000    -4.995000000
H     1.212000000    -1.362000000    -4.937000000
O    -3.493000000    -4.281000000    -2.733000000
H    -4.144000000    -3.582000000    -2.794000000
H    -3.511000000    -4.699000000    -3.594000000
O    -1.589000000     3.977000000    -1.701000000
H    -1.298000000     3.495000000    -0.927000000
H    -0.780000000     4.291000000    -2.105000000
O     1.673000000    -0.725000000     2.465000000
H     0.986000000    -0.869000000     3.115000000
H     1.209000000    -0.396000000     1.695000000
O    -1.909000000    -3.182000000     3.098000000
H    -2.495000000    -2.426000000     3.138000000
H    -1.688000000    -3.264000000     2.170000000
O     4.779000000     1.387000000    -1.742000000
H     4.239000000     2.020000000    -2.216000000
H     5.660000000     1.510000000    -2.095000000
O     3.468000000     0.525000000    -4.133000000
H     3.123000000     1.261000000    -3.628000000
H     3.988000000     0.025000000    -3.504000000
O     1.188000000     6.046000000    -0.628000000
H     0.985000000     6.981000000    -0.672000000
H     2.012000000     6.002000000    -0.143000000
O    -1.849000000     3.485000000     4.534000000
H    -1.235000000     4.210000000     4.423000000
H    -2.229000000     3.624000000     5.402000000
O    -1.479000000    -2.343000000    -3.818000000
H    -1.724000000    -2.880000000    -3.064000000
H    -1.897000000    -1.498000000    -3.655000000
O     3.004000000     3.117000000    -2.741000000
H     3.498000000     3.738000000    -3.275000000
H     2.250000000     3.616000000    -2.428000000
O    -4.382000000    -6.177000000     2.054000000
H    -4.086000000    -7.077000000     2.189000000
H    -3.902000000    -5.880000000     1.281000000
O     3.543000000     7.133000000     0.710000000
H     4.176000000     7.711000000     0.286000000
H     3.977000000     6.280000000     0.736000000
O    -2.204000000     0.892000000     4.605000000
H    -1.881000000     1.783000000     4.472000000
H    -1.412000000     0.358000000     4.670000000
O     1.105000000    -7.932000000    -0.475000000
H     0.977000000    -7.133000000     0.037000000
H     2.003000000    -7.867000000    -0.799000000
O    -0.224000000    -1.391000000     4.305000000
H     0.448000000    -1.724000000     4.900000000
H    -0.721000000    -2.168000000     4.046000000
O     1.355000000    -2.749000000    -3.547000000
H     0.462000000    -2.883000000    -3.230000000
H     1.910000000    -2.965000000    -2.797000000
O     5.820000000    -1.020000000    -3.046000000
H     5.915000000    -0.513000000    -2.240000000
H     6.709000000    -1.312000000    -3.251000000
O    -3.849000000    -4.839000000     4.406000000
H    -3.192000000    -4.274000000     3.999000000
H    -4.116000000    -5.437000000     3.708000000
O     3.784000000     1.099000000     2.088000000
H     2.960000000     0.717000000     2.389000000
H     4.387000000     0.358000000     2.036000000
