144
-2791.17988
O    -0.802000000    -5.800000000    -4.787000000
H    -0.859000000    -6.274000000    -3.958000000
H    -1.263000000    -4.977000000    -4.625000000
O    -3.102000000    -1.833000000    -1.887000000
H    -3.949000000    -2.161000000    -2.191000000
H    -3.239000000    -0.893000000    -1.765000000
O     1.070000000     7.322000000     2.142000000
H     1.259000000     7.239000000     1.208000000
H     1.825000000     7.791000000     2.499000000
O     0.717000000     4.570000000     3.557000000
H     1.523000000     4.071000000     3.426000000
H     0.892000000     5.418000000     3.148000000
O    -2.895000000    -0.618000000    -5.231000000
H    -3.109000000    -0.773000000    -4.311000000
H    -1.958000000    -0.425000000    -5.230000000
O     0.941000000    -3.801000000     3.512000000
H     0.376000000    -3.775000000     2.739000000
H     1.458000000    -2.998000000     3.458000000
O    -2.033000000     1.948000000    -3.404000000
H    -2.904000000     1.583000000    -3.248000000
H    -1.566000000     1.260000000    -3.878000000
O    -3.191000000     4.705000000    -0.537000000
H    -2.646000000     5.469000000    -0.728000000
H    -3.870000000     4.721000000    -1.212000000
O    -4.960000000     2.958000000     3.003000000
H    -5.221000000     2.762000000     2.103000000
H    -4.003000000     2.950000000     2.981000000
O    -1.104000000    -5.580000000     5.426000000
H    -1.649000000    -5.071000000     4.826000000
H    -0.236000000    -5.182000000     5.356000000
O     1.440000000     2.403000000    -6.235000000
H     2.364000000     2.177000000    -6.337000000
H     1.413000000     2.957000000    -5.455000000
O     3.290000000     3.484000000     2.770000000
H     3.397000000     3.420000000     3.719000000
H     3.183000000     2.579000000     2.479000000
O    -1.209000000    -2.653000000     6.721000000
H    -1.553000000    -2.061000000     7.391000000
H    -0.939000000    -2.075000000     6.007000000
O     4.202000000    -2.262000000    -0.686000000
H     4.750000000    -1.676000000    -1.208000000
H     4.246000000    -3.102000000    -1.144000000
O    -0.923000000     4.579000000    -3.094000000
H    -0.857000000     4.643000000    -2.142000000
H    -1.523000000     3.848000000    -3.244000000
O     2.750000000    -6.199000000     3.890000000
H     1.975000000    -5.996000000     3.367000000
H     3.348000000    -5.470000000     3.724000000
O     2.010000000    -4.517000000    -4.872000000
H     1.100000000    -4.812000000    -4.841000000
H     2.231000000    -4.327000000    -3.960000000
O    -2.555000000    -7.269000000    -2.383000000
H    -2.982000000    -6.513000000    -2.786000000
H    -1.785000000    -6.905000000    -1.947000000
O     1.061000000    -6.248000000     0.928000000
H     1.710000000    -6.420000000     0.246000000
H     0.601000000    -5.464000000     0.629000000
O     1.718000000     3.723000000    -4.023000000
H     1.907000000     4.631000000    -4.260000000
H     0.810000000     3.739000000    -3.718000000
O    -3.443000000    -0.021000000     0.430000000
H    -2.574000000     0.372000000     0.352000000
H    -4.046000000     0.721000000     0.388000000
O    -0.117000000    -5.970000000    -1.965000000
H    -0.107000000    -5.120000000    -1.525000000
H     0.729000000    -6.362000000    -1.747000000
O    -4.527000000     2.510000000     0.378000000
H    -4.040000000     3.175000000    -0.108000000
H    -5.355000000     2.427000000    -0.095000000
O    -2.491000000    -4.643000000    -0.194000000
H    -2.367000000    -4.080000000    -0.958000000
H    -1.697000000    -4.518000000     0.327000000
O    -3.798000000    -1.534000000     2.777000000
H    -3.776000000    -1.222000000     1.873000000
H    -3.364000000    -0.844000000     3.279000000
O    -3.435000000     5.490000000     2.950000000
H    -4.213000000     5.903000000     2.573000000
H    -3.653000000     4.559000000     2.988000000
O    -1.660000000     6.877000000    -1.182000000
H    -0.754000000     6.760000000    -0.897000000
H    -1.634000000     7.643000000    -1.756000000
O     2.715000000    -1.251000000    -3.601000000
H     3.253000000    -0.792000000    -2.956000000
H     2.560000000    -2.112000000    -3.213000000
O    -3.020000000    -4.932000000    -3.561000000
H    -2.647000000    -4.078000000    -3.340000000
H    -3.516000000    -4.776000000    -4.365000000
O    -0.295000000     0.149000000    -4.862000000
H     0.195000000     0.943000000    -5.074000000
H     0.350000000    -0.428000000    -4.451000000
O     2.418000000    -1.066000000     3.871000000
H     3.149000000    -1.472000000     4.338000000
H     2.820000000    -0.668000000     3.099000000
O    -2.043000000    -3.577000000     3.180000000
H    -2.623000000    -2.861000000     2.922000000
H    -1.414000000    -3.648000000     2.462000000
O     5.012000000    -0.077000000    -1.858000000
H     5.277000000     0.686000000    -1.344000000
H     5.578000000    -0.055000000    -2.629000000
O     0.972000000     6.707000000    -0.596000000
H     1.556000000     7.131000000    -1.224000000
H     1.392000000     5.868000000    -0.406000000
O    -2.035000000     3.219000000     3.617000000
H    -1.342000000     3.846000000     3.410000000
H    -2.026000000     3.157000000     4.572000000
O    -0.938000000    -2.759000000    -3.035000000
H    -0.248000000    -2.907000000    -2.389000000
H    -1.710000000    -2.539000000    -2.515000000
O     3.942000000     3.595000000    -2.094000000
H     3.041000000     3.487000000    -2.397000000
H     4.480000000     3.303000000    -2.830000000
O     1.997000000    -3.928000000     6.135000000
H     1.380000000    -3.725000000     5.432000000
H     2.434000000    -4.729000000     5.846000000
O    -4.434000000    -5.978000000     1.537000000
H    -3.808000000    -6.594000000     1.918000000
H    -4.043000000    -5.727000000     0.700000000
O     3.893000000     1.164000000    -5.258000000
H     3.403000000     0.698000000    -4.580000000
H     4.658000000     1.514000000    -4.802000000
O     2.651000000     4.957000000     0.321000000
H     3.252000000     4.451000000    -0.225000000
H     2.904000000     4.741000000     1.219000000
O    -2.228000000     0.171000000     4.053000000
H    -1.917000000     1.054000000     3.857000000
H    -1.500000000    -0.242000000     4.518000000
O    -0.084000000    -0.620000000     5.275000000
H     0.664000000    -0.904000000     4.750000000
H     0.306000000    -0.154000000     6.015000000
O     2.715000000    -3.787000000    -2.313000000
H     1.946000000    -3.792000000    -1.744000000
H     3.239000000    -4.531000000    -2.015000000
O    -3.468000000    -3.677000000     5.648000000
H    -2.835000000    -3.654000000     6.366000000
H    -2.974000000    -3.381000000     4.884000000
O     4.679000000    -2.020000000     1.953000000
H     4.265000000    -1.992000000     1.090000000
H     4.976000000    -1.123000000     2.105000000
O     0.223000000    -7.907000000     2.760000000
H    -0.389000000    -8.512000000     2.342000000
H     0.442000000    -7.276000000     2.074000000
O     3.437000000     0.817000000     1.507000000
H     2.959000000     0.529000000     0.729000000
H     4.305000000     1.055000000     1.180000000
