144
-2851.47969
O     2.721000000    -4.287000000    -2.704000000
H     1.826000000    -4.146000000    -3.013000000
H     2.949000000    -3.475000000    -2.252000000
O    -3.026000000    -1.925000000     2.708000000
H    -3.836000000    -1.624000000     2.296000000
H    -2.593000000    -1.123000000     2.999000000
O    -2.745000000    -4.205000000    -4.200000000
H    -2.411000000    -3.852000000    -5.025000000
H    -1.974000000    -4.265000000    -3.635000000
O     5.995000000    -0.208000000    -2.350000000
H     5.729000000    -0.952000000    -2.891000000
H     6.820000000    -0.485000000    -1.951000000
O    -6.606000000     1.148000000     1.716000000
H    -7.539000000     1.271000000     1.888000000
H    -6.220000000     2.013000000     1.855000000
O    -5.579000000     2.823000000    -1.832000000
H    -5.432000000     1.880000000    -1.767000000
H    -5.233000000     3.061000000    -2.692000000
O     8.340000000    -1.394000000    -0.699000000
H     8.957000000    -0.889000000    -0.168000000
H     7.516000000    -1.349000000    -0.214000000
O     1.868000000    -1.038000000    -4.117000000
H     2.125000000    -1.348000000    -3.248000000
H     2.636000000    -1.201000000    -4.665000000
O     4.640000000    -6.253000000    -2.485000000
H     3.803000000    -5.798000000    -2.398000000
H     4.454000000    -7.152000000    -2.213000000
O    -0.008000000     4.514000000    -2.746000000
H    -0.257000000     4.764000000    -1.856000000
H     0.916000000     4.271000000    -2.677000000
O    -2.927000000     5.369000000     1.353000000
H    -3.737000000     4.977000000     1.027000000
H    -3.190000000     5.839000000     2.145000000
O    -5.185000000     4.570000000     0.243000000
H    -5.567000000     5.341000000    -0.177000000
H    -5.404000000     3.845000000    -0.342000000
O     7.181000000    -2.376000000     2.270000000
H     6.712000000    -2.038000000     1.508000000
H     8.027000000    -1.928000000     2.249000000
O    -3.418000000     3.359000000     4.514000000
H    -3.421000000     3.974000000     3.780000000
H    -2.919000000     3.806000000     5.198000000
O     5.417000000     0.539000000     2.548000000
H     5.298000000     0.980000000     1.707000000
H     4.675000000    -0.062000000     2.609000000
O     4.752000000    -5.546000000     1.381000000
H     4.618000000    -6.127000000     2.130000000
H     3.870000000    -5.283000000     1.120000000
O    -4.656000000     2.833000000    -4.421000000
H    -3.708000000     2.880000000    -4.301000000
H    -4.784000000     2.111000000    -5.036000000
O     1.071000000    -6.780000000    -1.540000000
H     1.387000000    -5.926000000    -1.244000000
H     0.484000000    -6.579000000    -2.269000000
O    -2.769000000    -4.727000000    -1.361000000
H    -3.712000000    -4.641000000    -1.497000000
H    -2.515000000    -3.917000000    -0.919000000
O    -5.463000000    -1.222000000     1.636000000
H    -5.834000000    -0.341000000     1.668000000
H    -6.150000000    -1.757000000     1.239000000
O     6.087000000    -2.450000000    -4.251000000
H     7.011000000    -2.561000000    -4.475000000
H     5.927000000    -3.095000000    -3.562000000
O    -0.739000000     4.907000000    -0.361000000
H    -0.019000000     5.049000000     0.253000000
H    -1.506000000     4.773000000     0.196000000
O     5.239000000     1.507000000     0.047000000
H     4.546000000     1.966000000    -0.428000000
H     5.605000000     0.897000000    -0.594000000
O    -5.496000000     1.510000000     5.366000000
H    -5.053000000     1.719000000     6.188000000
H    -5.130000000     2.127000000     4.732000000
O    -1.988000000    -2.582000000     0.134000000
H    -2.398000000    -2.610000000     0.999000000
H    -1.109000000    -2.240000000     0.298000000
O    -2.827000000     7.061000000    -1.611000000
H    -2.526000000     6.364000000    -1.029000000
H    -2.942000000     6.632000000    -2.459000000
O     3.983000000    -2.380000000    -5.650000000
H     4.730000000    -2.467000000    -5.057000000
H     4.377000000    -2.277000000    -6.517000000
O     3.872000000    -2.078000000     2.795000000
H     4.725000000    -2.380000000     2.481000000
H     3.380000000    -1.881000000     1.998000000
O     2.246000000     2.514000000    -0.411000000
H     2.176000000     3.013000000     0.402000000
H     1.592000000     1.820000000    -0.324000000
O    -3.786000000    -1.591000000    -1.997000000
H    -3.237000000    -1.694000000    -1.219000000
H    -3.383000000    -2.162000000    -2.651000000
O     3.319000000    -5.241000000    -5.254000000
H     3.395000000    -5.174000000    -4.302000000
H     3.611000000    -4.389000000    -5.578000000
O     3.167000000     1.865000000     5.912000000
H     4.099000000     1.651000000     5.860000000
H     2.999000000     2.398000000     5.135000000
O    -2.756000000     0.216000000     4.278000000
H    -2.771000000     0.377000000     5.222000000
H    -3.286000000     0.922000000     3.907000000
O    -5.575000000     0.239000000    -1.444000000
H    -4.766000000    -0.270000000    -1.509000000
H    -5.923000000     0.025000000    -0.578000000
O     5.686000000    -2.062000000     0.227000000
H     4.731000000    -2.093000000     0.284000000
H     5.901000000    -2.643000000    -0.502000000
O    -6.392000000     3.848000000     2.614000000
H    -5.960000000     4.236000000     1.853000000
H    -6.379000000     4.540000000     3.275000000
O    -0.011000000     1.033000000    -5.085000000
H     0.546000000     0.399000000    -4.632000000
H    -0.093000000     0.687000000    -5.974000000
O     1.431000000    -3.382000000     2.955000000
H     0.898000000    -2.592000000     2.875000000
H     2.284000000    -3.067000000     3.253000000
O     3.003000000     2.901000000    -3.189000000
H     2.971000000     2.596000000    -2.282000000
H     3.573000000     3.669000000    -3.163000000
O     2.187000000    -4.900000000     0.468000000
H     2.524000000    -4.122000000     0.023000000
H     1.874000000    -4.577000000     1.312000000
O    -1.782000000     2.881000000    -4.203000000
H    -1.138000000     2.266000000    -4.554000000
H    -1.280000000     3.442000000    -3.612000000
O     3.100000000     2.795000000     2.267000000
H     3.077000000     3.063000000     3.186000000
H     4.024000000     2.617000000     2.093000000
O    -0.249000000    -2.867000000    -4.269000000
H     0.308000000    -3.623000000    -4.454000000
H     0.314000000    -2.110000000    -4.429000000
O    -1.731000000     0.894000000     6.799000000
H    -0.872000000     0.654000000     6.453000000
H    -1.544000000     1.281000000     7.655000000
O     6.376000000    -4.145000000    -2.008000000
H     7.172000000    -4.515000000    -1.627000000
H     5.725000000    -4.842000000    -1.927000000
O     0.176000000    -1.129000000     3.922000000
H     0.472000000    -0.833000000     4.783000000
H    -0.709000000    -0.774000000     3.839000000
O     5.155000000    -1.858000000     5.248000000
H     4.553000000    -2.017000000     4.521000000
H     6.026000000    -1.972000000     4.867000000
O     0.852000000     0.029000000     6.338000000
H     1.701000000     0.462000000     6.251000000
H     0.879000000    -0.380000000     7.203000000
