144
-2819.69534
O    -3.858000000    -2.882000000    -0.251000000
H    -3.570000000    -2.466000000     0.561000000
H    -3.056000000    -2.988000000    -0.763000000
O     2.736000000    -5.802000000    -0.994000000
H     1.939000000    -5.481000000    -0.572000000
H     2.807000000    -6.713000000    -0.709000000
O    -4.862000000    -2.591000000    -4.139000000
H    -3.958000000    -2.415000000    -4.400000000
H    -4.804000000    -3.371000000    -3.587000000
O     0.298000000     5.724000000    -2.148000000
H     0.767000000     6.522000000    -1.904000000
H     0.960000000     5.034000000    -2.102000000
O     1.113000000    -0.795000000    -7.839000000
H     1.224000000    -0.771000000    -6.888000000
H     1.885000000    -0.345000000    -8.181000000
O     3.403000000     1.577000000     3.730000000
H     2.594000000     1.584000000     4.240000000
H     3.353000000     0.774000000     3.211000000
O     2.197000000     2.637000000     6.214000000
H     1.754000000     3.453000000     6.448000000
H     2.006000000     2.044000000     6.941000000
O    -3.375000000    -1.570000000     2.639000000
H    -3.154000000    -0.648000000     2.774000000
H    -4.301000000    -1.631000000     2.871000000
O     5.905000000     2.897000000    -0.350000000
H     6.601000000     3.316000000     0.158000000
H     5.264000000     3.592000000    -0.496000000
O     0.013000000    -0.135000000    -5.276000000
H     0.388000000     0.148000000    -4.442000000
H    -0.894000000     0.170000000    -5.246000000
O     3.689000000    -3.133000000     1.892000000
H     2.832000000    -3.530000000     2.045000000
H     3.545000000    -2.195000000     2.019000000
O    -2.109000000    -3.559000000    -4.515000000
H    -1.523000000    -3.034000000    -3.971000000
H    -1.735000000    -4.440000000    -4.489000000
O     0.721000000     7.182000000     2.429000000
H     1.367000000     7.745000000     2.854000000
H     1.218000000     6.708000000     1.761000000
O     0.191000000    -7.285000000    -1.180000000
H     0.395000000    -6.852000000    -2.009000000
H     0.281000000    -6.596000000    -0.521000000
O    -4.698000000    -4.757000000    -2.248000000
H    -3.907000000    -5.260000000    -2.052000000
H    -4.605000000    -3.955000000    -1.734000000
O     1.397000000    -4.166000000     3.085000000
H     1.372000000    -3.458000000     3.728000000
H     1.316000000    -4.965000000     3.605000000
O    -1.355000000     2.569000000    -4.583000000
H    -0.754000000     2.538000000    -3.839000000
H    -2.220000000     2.673000000    -4.188000000
O     2.592000000     5.756000000     0.951000000
H     3.021000000     5.646000000     0.102000000
H     2.929000000     5.037000000     1.484000000
O     0.634000000    -4.698000000     0.093000000
H    -0.158000000    -4.220000000    -0.153000000
H     0.837000000    -4.387000000     0.975000000
O    -2.269000000     4.210000000    -1.621000000
H    -2.925000000     4.869000000    -1.392000000
H    -1.561000000     4.708000000    -2.028000000
O    -2.130000000    -6.388000000     2.779000000
H    -2.900000000    -6.474000000     3.341000000
H    -1.993000000    -5.444000000     2.704000000
O     2.273000000    -2.477000000    -3.551000000
H     1.402000000    -2.250000000    -3.225000000
H     2.846000000    -2.385000000    -2.789000000
O    -2.909000000     0.434000000    -0.475000000
H    -2.609000000     0.326000000    -1.377000000
H    -2.143000000     0.225000000     0.059000000
O    -1.521000000     0.747000000     6.420000000
H    -2.240000000     0.128000000     6.293000000
H    -1.882000000     1.418000000     6.999000000
O     6.471000000     1.736000000     3.850000000
H     5.544000000     1.969000000     3.891000000
H     6.905000000     2.532000000     3.543000000
O     4.638000000    -0.413000000    -5.091000000
H     3.984000000    -0.959000000    -4.654000000
H     5.447000000    -0.922000000    -5.043000000
O     3.145000000    -5.773000000    -3.786000000
H     3.212000000    -6.694000000    -4.037000000
H     2.913000000    -5.794000000    -2.858000000
O     2.981000000     1.142000000    -2.901000000
H     3.085000000     0.425000000    -2.276000000
H     3.680000000     1.004000000    -3.541000000
O    -4.634000000    -5.585000000     0.938000000
H    -4.488000000    -6.187000000     0.207000000
H    -4.233000000    -4.763000000     0.655000000
O     2.566000000    -0.692000000     2.085000000
H     1.874000000    -1.053000000     1.531000000
H     2.970000000    -0.009000000     1.551000000
O     3.591000000    -3.076000000    -1.063000000
H     3.079000000    -3.855000000    -1.278000000
H     3.813000000    -3.182000000    -0.138000000
O    -2.975000000     3.423000000     3.784000000
H    -3.305000000     3.372000000     2.887000000
H    -3.418000000     4.184000000     4.160000000
O    -2.398000000    -5.757000000    -1.959000000
H    -1.780000000    -5.042000000    -2.112000000
H    -1.844000000    -6.521000000    -1.798000000
O     3.692000000     1.175000000     0.548000000
H     3.841000000     2.083000000     0.811000000
H     4.552000000     0.864000000     0.264000000
O    -5.509000000     0.435000000    -0.299000000
H    -5.590000000     1.336000000    -0.611000000
H    -4.576000000     0.328000000    -0.114000000
O     3.908000000     3.907000000     2.390000000
H     3.790000000     3.108000000     2.905000000
H     4.041000000     4.595000000     3.042000000
O     0.956000000    -3.001000000    -5.981000000
H     0.283000000    -2.387000000    -6.273000000
H     1.272000000    -2.634000000    -5.155000000
O     1.990000000     3.641000000    -2.743000000
H     2.482000000     2.824000000    -2.656000000
H     2.629000000     4.271000000    -3.077000000
O    -3.446000000     0.923000000     3.355000000
H    -4.217000000     1.470000000     3.507000000
H    -2.711000000     1.455000000     3.663000000
O    -3.629000000     3.000000000     0.694000000
H    -3.387000000     2.089000000     0.530000000
H    -3.115000000     3.502000000     0.061000000
O    -0.419000000     3.645000000     5.325000000
H    -1.277000000     3.913000000     4.995000000
H    -0.485000000     2.695000000     5.419000000
O    -3.797000000    -0.846000000     5.833000000
H    -3.669000000    -1.794000000     5.832000000
H    -3.882000000    -0.614000000     4.908000000
O     0.408000000    -5.232000000    -3.595000000
H     0.316000000    -4.286000000    -3.475000000
H     1.315000000    -5.350000000    -3.876000000
O     3.863000000     6.216000000     3.896000000
H     3.885000000     6.929000000     4.534000000
H     2.931000000     6.055000000     3.748000000
O    -1.503000000    -6.541000000    -5.022000000
H    -0.715000000    -6.178000000    -4.620000000
H    -1.825000000    -7.179000000    -4.385000000
O     1.189000000    -1.860000000     4.464000000
H     1.282000000    -1.542000000     5.362000000
H     1.761000000    -1.292000000     3.949000000
O    -2.111000000    -3.855000000     3.990000000
H    -2.617000000    -3.774000000     4.799000000
H    -2.366000000    -3.092000000     3.472000000
O     0.900000000    -0.704000000     6.962000000
H     1.118000000     0.085000000     7.459000000
H     0.069000000    -0.496000000     6.535000000
