144
-2849.73726
O    -4.575000000    -2.739000000    -6.221000000
H    -5.165000000    -2.061000000    -5.891000000
H    -4.155000000    -3.093000000    -5.437000000
O    -4.943000000    -4.033000000    -1.170000000
H    -5.500000000    -4.811000000    -1.129000000
H    -4.392000000    -4.092000000    -0.389000000
O    -2.418000000     1.520000000     2.147000000
H    -3.230000000     1.292000000     1.693000000
H    -1.806000000     0.825000000     1.906000000
O    -0.269000000     7.861000000    -0.156000000
H     0.197000000     8.687000000    -0.284000000
H     0.423000000     7.203000000    -0.096000000
O     2.401000000    -5.294000000     3.928000000
H     1.719000000    -4.626000000     3.860000000
H     2.137000000    -5.970000000     3.304000000
O    -5.102000000     1.372000000    -4.947000000
H    -4.311000000     1.362000000    -5.486000000
H    -4.781000000     1.476000000    -4.052000000
O     3.714000000     5.448000000    -0.740000000
H     4.101000000     5.127000000     0.075000000
H     3.450000000     4.657000000    -1.208000000
O    -2.575000000     4.096000000     0.686000000
H    -2.392000000     3.404000000     1.322000000
H    -1.736000000     4.251000000     0.254000000
O     2.621000000    -1.975000000    -3.067000000
H     3.508000000    -2.093000000    -2.728000000
H     2.139000000    -2.738000000    -2.748000000
O    -2.308000000     6.734000000    -1.281000000
H    -1.616000000     7.307000000    -0.950000000
H    -1.862000000     5.912000000    -1.483000000
O    -2.770000000    -3.816000000     1.047000000
H    -1.980000000    -3.879000000     0.510000000
H    -2.892000000    -4.697000000     1.399000000
O     3.474000000    -5.660000000     0.263000000
H     2.887000000    -5.025000000    -0.148000000
H     2.919000000    -6.420000000     0.440000000
O    -1.367000000     2.210000000    -3.370000000
H    -0.642000000     2.835000000    -3.398000000
H    -2.152000000     2.749000000    -3.469000000
O    -0.754000000    -0.499000000    -4.715000000
H    -0.891000000     0.276000000    -4.170000000
H    -0.783000000    -1.232000000    -4.100000000
O    -0.868000000    -6.213000000    -1.884000000
H    -1.725000000    -6.496000000    -2.205000000
H    -1.059000000    -5.462000000    -1.323000000
O    -4.421000000    -1.283000000    -3.497000000
H    -3.771000000    -1.973000000    -3.628000000
H    -4.110000000    -0.556000000    -4.037000000
O    -3.752000000     3.846000000    -3.273000000
H    -4.254000000     4.655000000    -3.174000000
H    -4.066000000     3.282000000    -2.567000000
O     2.115000000    -2.129000000     4.149000000
H     1.926000000    -2.806000000     4.799000000
H     1.928000000    -1.305000000     4.599000000
O     1.482000000    -7.077000000     2.324000000
H     0.927000000    -7.784000000     2.654000000
H     1.192000000    -6.947000000     1.421000000
O     4.025000000     2.564000000    -1.383000000
H     4.255000000     2.032000000    -0.622000000
H     3.492000000     1.985000000    -1.928000000
O     1.404000000    -7.028000000    -0.820000000
H     1.707000000    -7.620000000    -1.509000000
H     0.557000000    -6.710000000    -1.133000000
O     1.676000000    -4.212000000    -1.621000000
H     0.788000000    -3.930000000    -1.402000000
H     1.568000000    -5.100000000    -1.962000000
O    -2.505000000     1.084000000    -6.230000000
H    -2.273000000     1.409000000    -7.099000000
H    -1.754000000     0.554000000    -5.963000000
O    -4.532000000     1.314000000    -1.831000000
H    -5.444000000     1.555000000    -1.669000000
H    -4.389000000     0.539000000    -1.288000000
O    -0.713000000    -1.420000000     3.565000000
H    -1.347000000    -1.441000000     2.849000000
H    -0.359000000    -0.531000000     3.546000000
O    -2.981000000    -1.288000000     1.866000000
H    -2.891000000    -2.226000000     1.699000000
H    -3.264000000    -0.922000000     1.028000000
O    -0.210000000     1.217000000     4.199000000
H     0.347000000     1.977000000     4.029000000
H    -1.094000000     1.515000000     3.982000000
O     1.581000000     3.242000000     4.650000000
H     0.854000000     3.738000000     5.028000000
H     2.254000000     3.247000000     5.331000000
O     4.623000000     4.220000000     1.428000000
H     5.320000000     4.436000000     2.048000000
H     4.738000000     3.286000000     1.254000000
O    -0.413000000     4.992000000     5.405000000
H    -1.167000000     4.535000000     5.777000000
H    -0.749000000     5.396000000     4.604000000
O     4.487000000     0.997000000     0.673000000
H     4.799000000     0.109000000     0.499000000
H     3.941000000     0.909000000     1.455000000
O     2.931000000    -3.188000000     1.815000000
H     2.717000000    -4.112000000     1.940000000
H     2.880000000    -2.809000000     2.693000000
O    -3.944000000     2.275000000     4.660000000
H    -3.241000000     1.761000000     5.059000000
H    -3.869000000     2.095000000     3.723000000
O     1.601000000     3.424000000    -2.878000000
H     1.536000000     2.510000000    -2.602000000
H     1.826000000     3.377000000    -3.807000000
O     2.043000000     0.637000000    -1.996000000
H     1.313000000     0.233000000    -1.529000000
H     2.475000000    -0.091000000    -2.442000000
O    -5.185000000     4.880000000     0.057000000
H    -5.065000000     5.829000000     0.021000000
H    -4.357000000     4.547000000     0.404000000
O     3.018000000     5.587000000     3.046000000
H     2.627000000     4.988000000     3.682000000
H     3.582000000     5.031000000     2.509000000
O    -1.123000000    -4.315000000    -6.583000000
H    -0.183000000    -4.312000000    -6.402000000
H    -1.188000000    -4.086000000    -7.510000000
O    -0.042000000     4.802000000    -0.946000000
H     0.700000000     4.206000000    -1.050000000
H    -0.004000000     5.367000000    -1.718000000
O    -4.380000000    -1.206000000    -0.489000000
H    -5.164000000    -1.517000000    -0.037000000
H    -4.326000000    -1.748000000    -1.276000000
O    -5.120000000     1.577000000     1.585000000
H    -5.846000000     1.710000000     0.976000000
H    -5.492000000     1.046000000     2.290000000
O    -2.039000000     5.600000000     2.960000000
H    -2.080000000     4.910000000     2.297000000
H    -2.274000000     6.399000000     2.489000000
O    -2.630000000    -3.607000000    -4.327000000
H    -2.033000000    -3.247000000    -3.671000000
H    -2.069000000    -3.810000000    -5.075000000
O     4.937000000    -1.591000000     0.155000000
H     4.279000000    -2.030000000     0.694000000
H     5.721000000    -1.570000000     0.704000000
O     5.191000000    -2.674000000    -2.120000000
H     5.990000000    -3.151000000    -1.897000000
H     4.989000000    -2.165000000    -1.335000000
O    -3.740000000    -5.958000000    -2.771000000
H    -3.861000000    -5.009000000    -2.735000000
H    -4.622000000    -6.308000000    -2.895000000
O     2.732000000     0.214000000    -4.843000000
H     2.268000000    -0.481000000    -4.375000000
H     3.656000000     0.063000000    -4.641000000
O     0.111000000    -3.945000000     2.916000000
H    -0.152000000    -3.090000000     3.257000000
H    -0.218000000    -3.957000000     2.017000000
