144
-2854.25142
O    -5.249000000    -5.201000000    -1.740000000
H    -6.001000000    -5.709000000    -1.437000000
H    -4.658000000    -5.174000000    -0.987000000
O    -5.943000000     2.821000000     0.566000000
H    -6.363000000     3.459000000    -0.011000000
H    -5.510000000     2.209000000    -0.029000000
O     4.338000000    -4.907000000     2.387000000
H     3.863000000    -5.134000000     1.587000000
H     3.753000000    -4.308000000     2.851000000
O     1.880000000    -6.569000000     2.959000000
H     1.614000000    -5.869000000     2.363000000
H     2.314000000    -7.210000000     2.397000000
O     3.036000000     5.294000000    -0.724000000
H     3.330000000     4.790000000     0.035000000
H     3.060000000     4.671000000    -1.450000000
O    -3.354000000     3.733000000     1.621000000
H    -4.145000000     3.371000000     1.221000000
H    -2.822000000     4.023000000     0.881000000
O     2.622000000    -3.241000000    -3.954000000
H     2.794000000    -3.018000000    -3.039000000
H     1.796000000    -3.724000000    -3.931000000
O    -1.636000000     5.022000000    -0.241000000
H    -1.001000000     5.459000000     0.327000000
H    -1.102000000     4.589000000    -0.908000000
O    -2.596000000    -0.521000000     5.266000000
H    -1.888000000     0.058000000     4.983000000
H    -2.632000000    -0.407000000     6.216000000
O     5.849000000     2.789000000    -1.168000000
H     6.504000000     3.113000000    -0.550000000
H     5.343000000     2.150000000    -0.667000000
O    -3.362000000    -4.339000000     0.040000000
H    -2.585000000    -3.885000000    -0.286000000
H    -3.050000000    -5.213000000     0.272000000
O     3.055000000    -5.514000000    -0.336000000
H     3.452000000    -5.242000000    -1.163000000
H     2.119000000    -5.579000000    -0.530000000
O    -1.134000000     1.911000000    -3.483000000
H    -0.757000000     2.634000000    -2.981000000
H    -1.232000000     2.261000000    -4.368000000
O    -2.225000000    -0.951000000    -4.029000000
H    -2.048000000    -0.030000000    -3.837000000
H    -1.632000000    -1.434000000    -3.453000000
O     0.675000000    -5.947000000    -1.709000000
H     0.315000000    -6.704000000    -1.247000000
H     0.109000000    -5.219000000    -1.453000000
O    -4.909000000    -1.356000000    -4.366000000
H    -4.000000000    -1.070000000    -4.460000000
H    -5.013000000    -1.517000000    -3.428000000
O    -4.125000000     5.538000000    -1.173000000
H    -3.213000000     5.521000000    -0.882000000
H    -4.309000000     6.464000000    -1.329000000
O    -4.673000000     3.812000000    -3.508000000
H    -4.678000000     4.471000000    -2.814000000
H    -4.735000000     2.976000000    -3.044000000
O     1.184000000    -1.674000000     4.636000000
H     0.820000000    -0.792000000     4.558000000
H     0.710000000    -2.065000000     5.369000000
O     4.697000000     0.951000000     0.301000000
H     5.373000000     0.661000000     0.913000000
H     4.193000000     0.161000000     0.109000000
O     0.473000000    -5.083000000    -4.459000000
H     0.415000000    -5.575000000    -3.639000000
H     0.962000000    -5.658000000    -5.048000000
O    -4.764000000     0.747000000    -0.951000000
H    -4.310000000     0.031000000    -1.396000000
H    -4.341000000     0.802000000    -0.094000000
O    -1.541000000    -2.885000000     3.269000000
H    -2.123000000    -2.600000000     2.565000000
H    -1.349000000    -2.086000000     3.760000000
O    -4.829000000    -2.201000000     1.839000000
H    -5.454000000    -2.469000000     2.512000000
H    -4.313000000    -2.988000000     1.664000000
O    -0.288000000     1.168000000     4.499000000
H     0.492000000     1.722000000     4.541000000
H    -0.784000000     1.510000000     3.756000000
O     5.654000000     1.752000000     4.150000000
H     6.521000000     2.061000000     3.885000000
H     5.207000000     2.536000000     4.470000000
O     1.642000000     3.157000000     4.720000000
H     1.042000000     3.893000000     4.840000000
H     1.880000000     2.895000000     5.609000000
O     3.794000000     3.855000000     1.596000000
H     4.328000000     3.961000000     2.384000000
H     3.732000000     2.908000000     1.475000000
O    -0.477000000     5.065000000     5.137000000
H    -1.006000000     4.728000000     5.860000000
H    -0.233000000     5.949000000     5.412000000
O     2.451000000    -2.946000000     2.643000000
H     1.751000000    -3.452000000     2.232000000
H     2.014000000    -2.453000000     3.337000000
O    -3.194000000     2.366000000     4.381000000
H    -3.446000000     1.459000000     4.210000000
H    -3.396000000     2.829000000     3.568000000
O    -2.304000000    -6.688000000     1.126000000
H    -1.640000000    -6.523000000     1.796000000
H    -1.900000000    -7.330000000     0.542000000
O     2.918000000     3.264000000    -2.483000000
H     3.231000000     2.361000000    -2.427000000
H     3.197000000     3.561000000    -3.349000000
O     2.410000000     0.570000000    -2.050000000
H     1.820000000     0.437000000    -1.308000000
H     2.934000000    -0.229000000    -2.086000000
O     0.191000000     4.073000000    -2.350000000
H     1.114000000     3.884000000    -2.181000000
H     0.194000000     4.943000000    -2.749000000
O     1.992000000     5.572000000     3.106000000
H     1.692000000     4.848000000     3.657000000
H     2.628000000     5.173000000     2.513000000
O    -5.272000000    -4.380000000    -4.477000000
H    -5.049000000    -3.449000000    -4.456000000
H    -5.081000000    -4.692000000    -3.593000000
O     0.610000000     6.526000000     0.758000000
H     1.001000000     6.241000000     1.584000000
H     1.182000000     6.160000000     0.084000000
O    -4.542000000    -1.934000000    -1.777000000
H    -4.758000000    -2.385000000    -0.960000000
H    -3.600000000    -2.067000000    -1.881000000
O     0.984000000     1.369000000    -5.326000000
H     1.616000000     0.765000000    -4.937000000
H     0.263000000     1.400000000    -4.697000000
O    -3.012000000    -6.242000000    -5.717000000
H    -2.911000000    -5.616000000    -5.001000000
H    -2.130000000    -6.339000000    -6.076000000
O    -3.717000000     0.494000000     1.582000000
H    -4.505000000     0.835000000     2.006000000
H    -3.872000000    -0.449000000     1.514000000
O    -2.786000000     5.741000000     3.508000000
H    -2.767000000     5.228000000     2.701000000
H    -2.139000000     5.321000000     4.075000000
O    -2.220000000    -4.837000000    -3.384000000
H    -2.318000000    -4.036000000    -2.868000000
H    -1.412000000    -4.705000000    -3.880000000
O     4.190000000    -1.826000000     0.792000000
H     3.542000000    -2.121000000     1.431000000
H     5.001000000    -2.260000000     1.056000000
O     4.178000000    -1.738000000    -1.884000000
H     5.080000000    -1.812000000    -2.197000000
H     4.229000000    -1.959000000    -0.954000000
O    -2.804000000    -7.218000000    -1.750000000
H    -3.695000000    -7.533000000    -1.597000000
H    -2.920000000    -6.382000000    -2.202000000
O     0.213000000    -4.406000000     1.566000000
H    -0.547000000    -4.202000000     2.111000000
H    -0.038000000    -4.119000000     0.688000000
