144
-2814.76160
O    -4.569000000    -2.674000000     0.940000000
H    -5.206000000    -2.662000000     0.226000000
H    -5.021000000    -3.119000000     1.657000000
O    -1.856000000     0.717000000    -4.859000000
H    -1.567000000    -0.052000000    -4.367000000
H    -2.630000000     1.025000000    -4.388000000
O     3.813000000    -0.996000000    -2.299000000
H     4.749000000    -1.145000000    -2.163000000
H     3.385000000    -1.658000000    -1.756000000
O    -0.850000000     6.943000000     1.628000000
H    -0.173000000     6.729000000     2.270000000
H    -1.667000000     6.924000000     2.126000000
O     3.598000000     1.667000000     4.747000000
H     3.748000000     1.428000000     5.661000000
H     4.117000000     1.037000000     4.246000000
O    -4.709000000     4.098000000    -4.192000000
H    -4.000000000     3.756000000    -3.647000000
H    -4.300000000     4.792000000    -4.709000000
O     2.102000000     3.953000000    -0.606000000
H     2.482000000     3.479000000    -1.346000000
H     1.220000000     4.185000000    -0.898000000
O    -3.752000000     1.170000000    -2.670000000
H    -4.507000000     1.009000000    -3.236000000
H    -4.106000000     1.666000000    -1.932000000
O     3.424000000    -5.488000000    -3.532000000
H     4.172000000    -5.334000000    -4.109000000
H     3.700000000    -5.140000000    -2.684000000
O    -4.774000000     2.450000000    -0.708000000
H    -5.449000000     3.111000000    -0.865000000
H    -4.070000000     2.926000000    -0.269000000
O     3.041000000    -3.010000000    -5.175000000
H     3.102000000    -3.501000000    -4.356000000
H     2.696000000    -2.155000000    -4.917000000
O    -1.068000000    -5.361000000    -6.506000000
H    -2.001000000    -5.499000000    -6.670000000
H    -1.018000000    -5.140000000    -5.576000000
O     2.988000000    -5.368000000    -6.718000000
H     3.656000000    -4.825000000    -7.137000000
H     2.922000000    -5.021000000    -5.828000000
O    -0.990000000    -1.554000000     5.106000000
H    -0.203000000    -1.994000000     5.428000000
H    -0.940000000    -1.642000000     4.154000000
O    -6.145000000     5.585000000     2.587000000
H    -5.559000000     4.961000000     3.016000000
H    -5.694000000     6.426000000     2.659000000
O    -0.852000000    -7.059000000    -2.249000000
H    -0.171000000    -6.807000000    -2.873000000
H    -0.459000000    -6.902000000    -1.390000000
O    -4.933000000     3.347000000     3.969000000
H    -5.122000000     2.715000000     3.275000000
H    -4.126000000     3.027000000     4.371000000
O     1.328000000    -2.453000000     5.558000000
H     1.612000000    -2.995000000     6.294000000
H     1.989000000    -2.602000000     4.882000000
O     3.081000000    -3.351000000     3.659000000
H     3.011000000    -4.225000000     4.042000000
H     2.691000000    -3.437000000     2.790000000
O    -0.670000000    -1.719000000    -4.344000000
H    -0.096000000    -2.262000000    -3.805000000
H    -1.189000000    -2.346000000    -4.848000000
O    -2.334000000    -4.647000000     0.341000000
H    -2.042000000    -4.420000000    -0.541000000
H    -2.991000000    -3.984000000     0.554000000
O     0.987000000    -2.847000000    -7.285000000
H     0.282000000    -3.480000000    -7.150000000
H     1.707000000    -3.171000000    -6.743000000
O     4.394000000    -4.460000000    -1.142000000
H     5.050000000    -3.891000000    -0.738000000
H     3.635000000    -3.892000000    -1.277000000
O    -0.104000000     4.467000000     4.789000000
H     0.081000000     4.113000000     5.659000000
H     0.659000000     4.223000000     4.265000000
O     0.672000000    -5.229000000    -3.933000000
H     0.591000000    -4.465000000    -3.362000000
H     1.602000000    -5.456000000    -3.899000000
O    -5.137000000    -2.121000000    -4.319000000
H    -5.695000000    -1.381000000    -4.078000000
H    -4.768000000    -2.423000000    -3.489000000
O    -3.942000000    -1.654000000    -1.546000000
H    -3.823000000    -1.834000000    -0.613000000
H    -4.009000000    -0.701000000    -1.599000000
O    -3.497000000    -0.531000000     2.185000000
H    -3.724000000    -1.436000000     1.971000000
H    -2.548000000    -0.488000000     2.066000000
O    -3.000000000     0.425000000     4.713000000
H    -3.379000000     0.139000000     3.881000000
H    -2.269000000    -0.175000000     4.862000000
O     0.225000000    -5.929000000    -0.038000000
H     0.789000000    -5.507000000     0.610000000
H    -0.639000000    -5.545000000     0.111000000
O    -2.758000000    -2.831000000    -5.719000000
H    -3.203000000    -3.399000000    -6.347000000
H    -3.467000000    -2.382000000    -5.258000000
O    -3.147000000     2.808000000     6.199000000
H    -2.999000000     2.089000000     5.586000000
H    -2.637000000     2.572000000     6.974000000
O     4.225000000     3.570000000     1.538000000
H     3.423000000     3.769000000     1.056000000
H     4.456000000     2.683000000     1.262000000
O    -2.060000000     6.342000000    -1.567000000
H    -1.903000000     7.151000000    -2.053000000
H    -1.674000000     6.501000000    -0.706000000
O     4.272000000    -0.704000000     3.355000000
H     4.812000000    -1.255000000     3.923000000
H     3.392000000    -1.074000000     3.429000000
O     0.289000000     2.334000000    -3.793000000
H    -0.449000000     1.857000000    -4.173000000
H     1.017000000     1.714000000    -3.825000000
O     2.577000000     0.825000000    -3.669000000
H     2.918000000     0.207000000    -3.023000000
H     2.396000000     0.289000000    -4.441000000
O    -0.242000000     4.198000000    -1.766000000
H    -0.283000000     3.530000000    -2.451000000
H    -0.977000000     4.781000000    -1.956000000
O     2.811000000     4.083000000     3.816000000
H     3.290000000     3.898000000     3.008000000
H     2.989000000     3.328000000     4.377000000
O    -1.826000000     6.850000000     4.059000000
H    -1.338000000     6.027000000     4.091000000
H    -1.763000000     7.201000000     4.947000000
O    -2.098000000    -3.854000000    -2.378000000
H    -2.728000000    -3.151000000    -2.221000000
H    -1.249000000    -3.413000000    -2.407000000
O     1.186000000     0.139000000    -5.846000000
H     1.088000000    -0.012000000    -6.786000000
H     0.370000000    -0.185000000    -5.465000000
O    -5.261000000     1.494000000     1.786000000
H    -5.309000000     1.227000000     0.868000000
H    -4.697000000     0.839000000     2.197000000
O    -2.777000000    -6.044000000    -3.517000000
H    -2.758000000    -5.141000000    -3.200000000
H    -1.954000000    -6.423000000    -3.209000000
O     4.900000000     0.993000000     1.201000000
H     4.327000000     0.805000000     0.457000000
H     4.579000000     0.424000000     1.900000000
O     6.545000000    -1.923000000    -0.095000000
H     6.517000000    -1.696000000    -1.025000000
H     7.135000000    -1.277000000     0.292000000
O     2.138000000    -4.273000000     1.182000000
H     2.025000000    -3.789000000     0.363000000
H     2.999000000    -4.683000000     1.101000000
O    -1.014000000    -2.006000000     2.164000000
H    -0.288000000    -1.753000000     1.594000000
H    -0.907000000    -2.949000000     2.285000000
