144
-2826.10527
O    -3.212000000     4.459000000    -1.767000000
H    -2.441000000     4.604000000    -1.220000000
H    -3.258000000     5.235000000    -2.326000000
O     2.957000000     1.166000000     0.116000000
H     3.046000000     1.622000000     0.953000000
H     2.014000000     1.051000000     0.004000000
O    -0.864000000     5.810000000    -0.827000000
H     0.050000000     5.579000000    -0.661000000
H    -0.882000000     6.070000000    -1.748000000
O     4.044000000     0.082000000    -3.735000000
H     3.105000000     0.021000000    -3.908000000
H     4.435000000    -0.594000000    -4.289000000
O    -4.134000000    -0.311000000    -4.456000000
H    -4.102000000     0.098000000    -5.321000000
H    -3.846000000     0.376000000    -3.855000000
O     1.366000000    -5.921000000    -5.134000000
H     1.863000000    -6.739000000    -5.111000000
H     1.766000000    -5.379000000    -4.454000000
O    -0.093000000    -0.775000000    -7.108000000
H     0.556000000    -0.085000000    -7.250000000
H     0.397000000    -1.480000000    -6.684000000
O    -1.015000000    -5.157000000    -6.917000000
H    -1.291000000    -4.254000000    -6.760000000
H    -0.385000000    -5.339000000    -6.219000000
O    -0.897000000    -5.158000000    -3.093000000
H    -1.632000000    -5.152000000    -2.479000000
H    -0.488000000    -4.300000000    -2.984000000
O    -4.677000000     4.198000000     1.151000000
H    -4.723000000     3.312000000     0.793000000
H    -3.771000000     4.289000000     1.448000000
O     0.096000000     0.571000000     5.752000000
H     0.996000000     0.590000000     6.078000000
H    -0.262000000     1.427000000     5.985000000
O     0.092000000    -3.998000000     2.946000000
H    -0.517000000    -4.731000000     2.859000000
H    -0.278000000    -3.461000000     3.646000000
O     1.246000000     0.038000000    -4.278000000
H     0.985000000    -0.875000000    -4.158000000
H     0.439000000     0.486000000    -4.534000000
O     3.014000000     0.140000000     4.754000000
H     3.755000000    -0.344000000     4.390000000
H     2.961000000    -0.151000000     5.664000000
O    -2.346000000    -5.834000000     0.799000000
H    -2.612000000    -5.485000000     1.650000000
H    -2.686000000    -5.204000000     0.164000000
O    -3.942000000    -4.138000000    -4.252000000
H    -3.171000000    -3.585000000    -4.379000000
H    -4.541000000    -3.598000000    -3.737000000
O     2.550000000    -4.545000000    -2.960000000
H     2.746000000    -4.971000000    -2.126000000
H     1.740000000    -4.063000000    -2.799000000
O    -1.809000000     2.640000000     5.469000000
H    -1.921000000     2.921000000     4.562000000
H    -1.692000000     3.453000000     5.960000000
O    -0.503000000    -2.055000000     5.041000000
H     0.161000000    -2.525000000     5.546000000
H    -0.350000000    -1.133000000     5.245000000
O    -2.974000000    -2.788000000     3.856000000
H    -3.340000000    -3.517000000     4.356000000
H    -2.154000000    -2.579000000     4.302000000
O     1.728000000     5.014000000    -0.448000000
H     1.892000000     4.362000000    -1.129000000
H     2.568000000     5.457000000    -0.332000000
O     4.645000000    -4.619000000     3.295000000
H     4.608000000    -3.699000000     3.032000000
H     3.735000000    -4.915000000     3.261000000
O     1.425000000    -3.015000000    -6.241000000
H     1.540000000    -2.880000000    -5.301000000
H     2.166000000    -3.565000000    -6.497000000
O    -3.558000000    -1.646000000    -0.806000000
H    -4.441000000    -1.277000000    -0.804000000
H    -3.183000000    -1.374000000     0.032000000
O    -4.185000000     1.648000000     0.085000000
H    -4.813000000     1.078000000    -0.359000000
H    -3.413000000     1.641000000    -0.481000000
O    -4.638000000     0.215000000     2.405000000
H    -4.845000000     0.818000000     1.691000000
H    -3.728000000    -0.036000000     2.251000000
O    -0.253000000    -6.834000000    -0.802000000
H    -0.955000000    -6.597000000    -0.196000000
H    -0.256000000    -6.137000000    -1.457000000
O    -1.159000000     1.530000000    -4.791000000
H    -1.876000000     1.905000000    -4.280000000
H    -1.126000000     2.062000000    -5.585000000
O     4.352000000    -0.789000000    -0.953000000
H     4.247000000    -0.604000000    -1.886000000
H     3.881000000    -0.080000000    -0.514000000
O    -4.611000000     1.678000000     5.055000000
H    -4.637000000     1.129000000     4.272000000
H    -3.728000000     1.557000000     5.404000000
O     4.664000000     3.977000000    -1.108000000
H     4.495000000     3.916000000    -0.168000000
H     5.493000000     3.514000000    -1.233000000
O    -3.093000000    -4.395000000    -1.346000000
H    -3.260000000    -3.474000000    -1.142000000
H    -3.459000000    -4.516000000    -2.223000000
O     5.039000000    -1.011000000     2.829000000
H     5.913000000    -1.109000000     2.452000000
H     4.515000000    -0.629000000     2.124000000
O     2.571000000    -6.753000000    -0.421000000
H     1.654000000    -6.951000000    -0.614000000
H     2.536000000    -5.970000000     0.129000000
O     2.861000000     2.147000000     2.753000000
H     2.370000000     2.936000000     2.982000000
H     2.667000000     1.530000000     3.459000000
O    -2.026000000     4.520000000     3.309000000
H    -1.079000000     4.607000000     3.198000000
H    -2.356000000     5.417000000     3.255000000
O    -1.911000000    -2.257000000    -4.143000000
H    -2.408000000    -1.502000000    -3.830000000
H    -1.052000000    -2.167000000    -3.731000000
O     5.717000000     2.130000000     2.184000000
H     6.056000000     2.863000000     1.671000000
H     4.796000000     2.346000000     2.332000000
O    -3.879000000     2.348000000    -3.157000000
H    -4.818000000     2.415000000    -3.331000000
H    -3.673000000     3.133000000    -2.650000000
O     1.266000000     2.759000000    -3.407000000
H     0.360000000     2.542000000    -3.629000000
H     1.729000000     1.922000000    -3.444000000
O     1.939000000    -6.287000000     3.775000000
H     1.128000000    -6.182000000     3.277000000
H     2.053000000    -7.235000000     3.849000000
O    -2.171000000     8.036000000     0.445000000
H    -3.071000000     8.107000000     0.127000000
H    -1.812000000     7.279000000    -0.017000000
O     4.505000000    -3.281000000     0.486000000
H     4.361000000    -2.654000000    -0.223000000
H     3.627000000    -3.587000000     0.716000000
O     5.136000000    -6.247000000    -3.033000000
H     4.642000000    -5.432000000    -3.123000000
H     5.387000000    -6.275000000    -2.110000000
O     1.944000000    -4.535000000     1.074000000
H     1.503000000    -4.197000000     0.295000000
H     1.395000000    -4.248000000     1.803000000
O     0.605000000     5.493000000     2.527000000
H     1.469000000     5.516000000     2.939000000
H     0.789000000     5.456000000     1.588000000
O     3.169000000     5.355000000     3.276000000
H     3.499000000     5.436000000     4.171000000
H     3.888000000     5.667000000     2.727000000
O    -2.335000000    -1.224000000     1.608000000
H    -1.416000000    -1.294000000     1.351000000
H    -2.394000000    -1.721000000     2.424000000
