144
-2809.75399
O     2.557000000     1.726000000    -4.635000000
H     2.783000000     1.666000000    -5.563000000
H     1.961000000     2.473000000    -4.582000000
O    -2.473000000     4.498000000    -0.392000000
H    -2.788000000     4.386000000    -1.289000000
H    -2.128000000     5.391000000    -0.369000000
O     7.740000000     0.489000000    -2.630000000
H     7.038000000     0.116000000    -2.097000000
H     7.286000000     1.004000000    -3.297000000
O     0.582000000     5.537000000    -0.500000000
H     1.250000000     5.500000000    -1.185000000
H     0.353000000     6.464000000    -0.439000000
O     6.233000000     2.401000000    -3.845000000
H     5.527000000     2.749000000    -3.300000000
H     6.956000000     3.015000000    -3.720000000
O    -2.373000000    -0.716000000    -2.760000000
H    -2.043000000     0.130000000    -3.061000000
H    -1.798000000    -0.952000000    -2.032000000
O     2.170000000    -4.886000000    -4.135000000
H     2.081000000    -5.058000000    -3.198000000
H     2.757000000    -4.132000000    -4.186000000
O    -1.293000000     4.719000000    -5.357000000
H    -0.518000000     4.230000000    -5.080000000
H    -1.427000000     4.458000000    -6.268000000
O     2.101000000    -4.843000000    -0.957000000
H     1.251000000    -4.926000000    -0.524000000
H     2.394000000    -3.958000000    -0.742000000
O    -4.158000000     3.919000000     5.156000000
H    -3.331000000     3.916000000     4.675000000
H    -4.326000000     4.843000000     5.339000000
O    -1.214000000     1.897000000     5.754000000
H    -1.509000000     2.804000000     5.677000000
H    -1.878000000     1.388000000     5.289000000
O     2.073000000    -2.516000000     3.660000000
H     2.132000000    -3.464000000     3.777000000
H     1.172000000    -2.301000000     3.902000000
O    -1.000000000    -3.556000000     3.411000000
H    -0.922000000    -2.637000000     3.665000000
H    -0.969000000    -3.543000000     2.454000000
O     4.698000000    -3.500000000    -2.309000000
H     4.036000000    -3.167000000    -1.703000000
H     4.916000000    -2.750000000    -2.862000000
O    -5.864000000     2.260000000    -1.480000000
H    -6.500000000     2.817000000    -1.031000000
H    -5.570000000     1.643000000    -0.810000000
O     0.958000000     0.697000000     6.441000000
H     0.227000000     1.234000000     6.135000000
H     1.575000000     1.325000000     6.816000000
O    -0.643000000    -1.238000000     4.717000000
H    -1.529000000    -0.878000000     4.722000000
H    -0.170000000    -0.722000000     5.370000000
O     4.477000000    -1.917000000     4.906000000
H     5.307000000    -1.776000000     4.450000000
H     3.906000000    -2.313000000     4.248000000
O     3.456000000    -2.466000000    -6.286000000
H     4.265000000    -2.021000000    -6.538000000
H     3.126000000    -1.961000000    -5.542000000
O    -4.325000000     2.078000000    -3.754000000
H    -4.995000000     2.216000000    -3.084000000
H    -4.819000000     1.952000000    -4.564000000
O    -4.058000000    -1.301000000    -0.009000000
H    -3.726000000    -0.533000000    -0.473000000
H    -4.599000000    -1.756000000    -0.654000000
O    -4.744000000     4.682000000     1.375000000
H    -5.521000000     4.775000000     0.824000000
H    -4.023000000     4.566000000     0.756000000
O    -5.899000000     0.889000000     1.033000000
H    -5.888000000     1.130000000     1.960000000
H    -5.520000000     0.010000000     1.010000000
O    -3.257000000     0.587000000     4.616000000
H    -3.310000000    -0.283000000     4.219000000
H    -4.030000000     1.047000000     4.290000000
O    -1.376000000    -5.961000000    -0.098000000
H    -1.643000000    -5.099000000     0.222000000
H    -1.664000000    -6.569000000     0.583000000
O     0.392000000     3.493000000    -3.509000000
H     1.040000000     3.740000000    -2.849000000
H    -0.079000000     2.757000000    -3.118000000
O     2.530000000    -7.232000000    -1.957000000
H     1.592000000    -7.340000000    -1.803000000
H     2.711000000    -6.325000000    -1.710000000
O     5.109000000     0.333000000    -1.494000000
H     4.492000000    -0.290000000    -1.877000000
H     4.693000000     1.187000000    -1.615000000
O    -2.675000000    -3.730000000     1.028000000
H    -3.125000000    -3.218000000     0.356000000
H    -3.326000000    -3.841000000     1.721000000
O    -0.400000000    -0.771000000    -6.677000000
H     0.216000000    -0.925000000    -5.960000000
H     0.154000000    -0.547000000    -7.424000000
O    -2.643000000     4.475000000    -3.042000000
H    -3.227000000     3.717000000    -3.066000000
H    -2.053000000     4.347000000    -3.785000000
O     6.124000000     1.107000000     1.805000000
H     5.675000000     1.765000000     2.336000000
H     5.472000000     0.835000000     1.159000000
O     5.399000000    -5.484000000     2.391000000
H     4.585000000    -5.985000000     2.347000000
H     5.130000000    -4.577000000     2.245000000
O     5.033000000    -1.247000000    -4.123000000
H     5.254000000    -0.461000000    -4.623000000
H     4.385000000    -0.950000000    -3.484000000
O     3.885000000     2.749000000    -2.529000000
H     3.354000000     2.296000000    -3.184000000
H     3.273000000     2.950000000    -1.822000000
O    -5.510000000     1.775000000     3.990000000
H    -6.400000000     1.633000000     4.313000000
H    -5.252000000     2.619000000     4.361000000
O     0.942000000     2.360000000     2.842000000
H     0.312000000     2.899000000     2.363000000
H     0.477000000     1.541000000     3.010000000
O    -1.387000000     4.174000000     4.323000000
H    -1.393000000     5.066000000     4.671000000
H    -0.824000000     4.222000000     3.551000000
O     1.440000000    -1.415000000    -4.333000000
H     0.857000000    -2.068000000    -3.944000000
H     2.094000000    -1.244000000    -3.656000000
O     3.365000000     2.235000000     1.807000000
H     3.308000000     3.184000000     1.692000000
H     2.604000000     2.013000000     2.343000000
O    -0.527000000     1.077000000    -4.211000000
H     0.173000000     0.431000000    -4.126000000
H    -0.479000000     1.364000000    -5.123000000
O     2.052000000     3.041000000    -0.722000000
H     1.444000000     3.673000000    -0.338000000
H     2.103000000     2.336000000    -0.076000000
O     2.383000000    -5.196000000     4.030000000
H     3.249000000    -5.409000000     4.377000000
H     2.072000000    -6.014000000     3.643000000
O     7.198000000    -1.792000000    -0.725000000
H     6.302000000    -1.696000000    -1.050000000
H     7.093000000    -2.099000000     0.176000000
O     6.355000000    -5.556000000    -1.498000000
H     5.571000000    -5.021000000    -1.625000000
H     6.029000000    -6.372000000    -1.118000000
O     4.184000000    -3.016000000     1.624000000
H     3.947000000    -2.635000000     0.778000000
H     3.510000000    -2.699000000     2.226000000
O    -0.551000000     4.017000000     1.584000000
H    -0.040000000     4.614000000     1.037000000
H    -1.348000000     3.854000000     1.080000000
O    -3.665000000    -1.789000000     3.365000000
H    -4.378000000    -2.393000000     3.159000000
H    -3.280000000    -1.575000000     2.515000000
