144
-2818.08411
O    -4.526000000     2.514000000     2.678000000
H    -4.938000000     3.128000000     3.286000000
H    -3.614000000     2.800000000     2.630000000
O    -0.964000000     4.347000000    -0.977000000
H    -1.907000000     4.390000000    -1.137000000
H    -0.568000000     4.544000000    -1.826000000
O    -2.406000000    -1.222000000     2.357000000
H    -1.568000000    -0.831000000     2.111000000
H    -2.408000000    -2.077000000     1.927000000
O     3.762000000    -1.237000000    -1.842000000
H     3.024000000    -0.638000000    -1.958000000
H     3.910000000    -1.253000000    -0.896000000
O    -1.423000000     5.978000000     3.113000000
H    -0.519000000     6.191000000     2.881000000
H    -1.855000000     6.828000000     3.195000000
O    -1.900000000     3.188000000     2.794000000
H    -1.559000000     3.387000000     1.922000000
H    -1.701000000     3.968000000     3.313000000
O     1.253000000     5.479000000     2.365000000
H     1.604000000     5.017000000     1.604000000
H     1.571000000     6.377000000     2.268000000
O     1.699000000     4.331000000    -0.180000000
H     0.786000000     4.122000000    -0.381000000
H     2.205000000     3.675000000    -0.659000000
O    -1.268000000    -1.120000000    -4.335000000
H    -0.478000000    -0.972000000    -4.854000000
H    -1.160000000    -2.004000000    -3.982000000
O    -5.487000000    -1.910000000     0.034000000
H    -5.987000000    -2.535000000    -0.491000000
H    -4.577000000    -2.190000000    -0.061000000
O    -7.080000000     3.470000000     1.265000000
H    -6.819000000     4.304000000     0.874000000
H    -6.285000000     2.937000000     1.243000000
O     1.079000000     4.628000000     4.852000000
H     1.312000000     3.711000000     4.708000000
H     1.009000000     4.998000000     3.973000000
O     5.113000000     4.680000000     4.641000000
H     6.067000000     4.673000000     4.561000000
H     4.798000000     4.388000000     3.786000000
O     4.741000000    -0.193000000     3.755000000
H     4.206000000     0.401000000     3.229000000
H     4.510000000    -1.067000000     3.441000000
O    -5.835000000     0.366000000    -2.796000000
H    -5.880000000     0.335000000    -3.752000000
H    -5.328000000    -0.409000000    -2.555000000
O     4.381000000    -2.625000000     2.552000000
H     4.142000000    -2.121000000     1.774000000
H     5.334000000    -2.708000000     2.501000000
O    -4.472000000    -3.092000000    -3.260000000
H    -5.340000000    -3.315000000    -3.596000000
H    -3.878000000    -3.685000000    -3.719000000
O     0.335000000     4.284000000    -3.374000000
H     0.239000000     3.335000000    -3.456000000
H    -0.155000000     4.640000000    -4.116000000
O     6.686000000    -1.412000000    -1.514000000
H     5.970000000    -1.501000000    -2.142000000
H     6.760000000    -2.277000000    -1.111000000
O    -2.840000000     3.606000000    -3.066000000
H    -3.561000000     3.539000000    -2.439000000
H    -3.069000000     4.357000000    -3.614000000
O     1.105000000    -0.248000000     4.754000000
H     1.368000000    -0.999000000     4.222000000
H     0.158000000    -0.344000000     4.855000000
O     1.403000000    -2.417000000     3.198000000
H     0.883000000    -3.175000000     2.932000000
H     2.311000000    -2.694000000     3.073000000
O     6.351000000    -0.337000000     0.911000000
H     5.426000000    -0.405000000     1.144000000
H     6.394000000    -0.649000000     0.007000000
O     2.030000000     0.718000000    -2.859000000
H     1.115000000     0.997000000    -2.808000000
H     2.496000000     1.320000000    -2.279000000
O     7.052000000    -2.654000000     2.803000000
H     7.065000000    -1.853000000     2.280000000
H     7.203000000    -2.357000000     3.700000000
O    -0.802000000    -3.842000000    -3.909000000
H    -1.381000000    -4.605000000    -3.920000000
H    -0.512000000    -3.774000000    -2.999000000
O    -0.130000000    -5.775000000     0.936000000
H     0.593000000    -6.309000000     1.267000000
H    -0.241000000    -6.059000000     0.029000000
O    -2.634000000     1.103000000     4.613000000
H    -2.995000000     0.694000000     3.827000000
H    -2.230000000     1.912000000     4.299000000
O    -4.929000000    -0.339000000     2.574000000
H    -4.887000000     0.617000000     2.591000000
H    -4.023000000    -0.617000000     2.436000000
O     1.980000000     2.264000000     3.702000000
H     2.404000000     2.225000000     2.845000000
H     1.580000000     1.401000000     3.810000000
O     3.842000000    -5.114000000     1.557000000
H     4.347000000    -5.667000000     2.154000000
H     3.890000000    -4.239000000     1.942000000
O     4.377000000    -3.162000000    -3.810000000
H     4.918000000    -2.812000000    -4.518000000
H     4.298000000    -2.438000000    -3.189000000
O     5.042000000    -0.190000000     6.483000000
H     5.042000000    -0.051000000     5.536000000
H     4.176000000    -0.553000000     6.671000000
O    -1.859000000    -3.944000000     1.386000000
H    -1.121000000    -4.547000000     1.296000000
H    -2.364000000    -4.061000000     0.581000000
O    -3.741000000    -0.415000000    -5.197000000
H    -2.837000000    -0.387000000    -4.885000000
H    -3.995000000    -1.335000000    -5.116000000
O     2.448000000    -0.609000000    -5.202000000
H     2.313000000    -0.163000000    -4.365000000
H     1.617000000    -0.504000000    -5.666000000
O     4.768000000     3.495000000     2.132000000
H     5.615000000     3.121000000     1.891000000
H     4.127000000     2.851000000     1.831000000
O     0.223000000    -6.727000000    -1.555000000
H    -0.271000000    -7.544000000    -1.486000000
H     0.047000000    -6.415000000    -2.442000000
O     5.799000000     1.273000000    -1.892000000
H     6.193000000     1.208000000    -2.762000000
H     5.790000000     0.373000000    -1.565000000
O    -3.192000000    -4.248000000    -0.945000000
H    -3.938000000    -4.848000000    -0.932000000
H    -3.289000000    -3.763000000    -1.764000000
O     3.029000000    -6.315000000    -1.331000000
H     3.024000000    -6.158000000    -0.387000000
H     2.115000000    -6.499000000    -1.549000000
O    -4.700000000     3.302000000    -1.111000000
H    -4.919000000     2.612000000    -0.485000000
H    -5.198000000     4.063000000    -0.813000000
O    -5.690000000     1.045000000     0.346000000
H    -5.888000000     0.739000000    -0.539000000
H    -5.309000000     0.283000000     0.782000000
O     3.665000000     2.848000000    -1.668000000
H     3.608000000     3.625000000    -2.224000000
H     4.435000000     2.379000000    -1.990000000
O     7.158000000     0.910000000     4.442000000
H     6.262000000     0.741000000     4.150000000
H     7.676000000     0.904000000     3.638000000
O    -2.402000000     1.896000000    -5.421000000
H    -3.034000000     1.281000000    -5.794000000
H    -2.933000000     2.498000000    -4.899000000
O    -0.625000000     1.703000000    -3.182000000
H    -0.988000000     1.133000000    -3.861000000
H    -1.392000000     2.042000000    -2.720000000
O     3.931000000     6.101000000     1.066000000
H     3.708000000     5.861000000     0.167000000
H     4.054000000     5.265000000     1.514000000
