144
-2825.15701
O    -3.289000000     1.282000000    -4.976000000
H    -3.813000000     0.752000000    -4.375000000
H    -2.557000000     0.715000000    -5.219000000
O     5.350000000     0.269000000     2.920000000
H     5.598000000     0.785000000     3.687000000
H     4.832000000     0.869000000     2.385000000
O     2.174000000     1.423000000     3.822000000
H     2.534000000     0.842000000     4.492000000
H     1.282000000     1.605000000     4.117000000
O    -2.080000000     4.192000000     3.113000000
H    -1.878000000     4.344000000     4.036000000
H    -1.235000000     3.987000000     2.713000000
O    -6.598000000     2.781000000    -2.881000000
H    -6.212000000     1.906000000    -2.925000000
H    -6.491000000     3.045000000    -1.968000000
O     5.495000000    -2.951000000    -3.772000000
H     6.181000000    -3.619000000    -3.791000000
H     5.771000000    -2.305000000    -4.423000000
O     1.899000000     0.718000000    -5.157000000
H     2.458000000     0.556000000    -5.917000000
H     2.511000000     0.885000000    -4.440000000
O    -1.773000000     3.494000000    -4.050000000
H    -2.177000000     2.688000000    -4.372000000
H    -1.350000000     3.874000000    -4.820000000
O    -1.667000000    -1.247000000     4.388000000
H    -0.986000000    -1.872000000     4.141000000
H    -1.264000000    -0.389000000     4.258000000
O     3.405000000    -0.724000000     5.083000000
H     3.997000000    -1.005000000     5.781000000
H     3.980000000    -0.539000000     4.341000000
O    -0.324000000     1.430000000     4.870000000
H    -1.010000000     2.051000000     4.623000000
H    -0.159000000     1.612000000     5.795000000
O     3.553000000     1.081000000    -3.196000000
H     3.452000000     0.206000000    -2.821000000
H     3.433000000     1.674000000    -2.454000000
O    -1.592000000     4.586000000    -1.612000000
H    -2.412000000     4.901000000    -1.233000000
H    -1.862000000     4.074000000    -2.375000000
O    -4.192000000     4.750000000     1.046000000
H    -4.791000000     5.199000000     1.642000000
H    -3.559000000     4.321000000     1.621000000
O    -2.564000000    -1.188000000    -3.492000000
H    -2.128000000    -1.003000000    -2.660000000
H    -3.468000000    -1.388000000    -3.250000000
O    -5.329000000     0.240000000    -2.282000000
H    -4.790000000    -0.337000000    -1.741000000
H    -6.004000000    -0.334000000    -2.645000000
O     5.007000000    -3.629000000     4.699000000
H     4.203000000    -3.912000000     5.134000000
H     4.706000000    -3.128000000     3.942000000
O    -3.656000000    -2.458000000     1.796000000
H    -4.540000000    -2.710000000     2.064000000
H    -3.136000000    -2.519000000     2.598000000
O     3.950000000    -3.988000000    -1.772000000
H     3.887000000    -3.239000000    -1.179000000
H     4.517000000    -3.685000000    -2.481000000
O     3.642000000     2.700000000    -0.866000000
H     3.507000000     2.516000000     0.064000000
H     2.877000000     3.217000000    -1.121000000
O    -6.507000000    -0.598000000     1.888000000
H    -7.207000000    -0.446000000     2.523000000
H    -5.713000000    -0.663000000     2.418000000
O     7.534000000     0.795000000     0.475000000
H     7.212000000     1.478000000     1.063000000
H     6.746000000     0.444000000     0.061000000
O    -1.100000000    -2.912000000    -0.519000000
H    -1.887000000    -2.761000000    -1.044000000
H    -0.975000000    -2.096000000    -0.035000000
O     1.217000000    -1.490000000     6.775000000
H     1.847000000    -1.316000000     6.076000000
H     0.575000000    -2.079000000     6.378000000
O     7.236000000    -4.608000000     2.005000000
H     6.403000000    -4.141000000     2.063000000
H     7.076000000    -5.305000000     1.369000000
O    -0.875000000     0.461000000    -6.506000000
H    -0.003000000     0.388000000    -6.117000000
H    -0.724000000     0.383000000    -7.448000000
O     2.110000000    -4.205000000     2.822000000
H     2.137000000    -3.298000000     2.517000000
H     2.205000000    -4.728000000     2.026000000
O    -3.851000000     6.030000000     4.123000000
H    -4.553000000     5.995000000     4.773000000
H    -3.842000000     5.155000000     3.734000000
O    -6.663000000     1.363000000    -0.156000000
H    -5.958000000     1.091000000    -0.743000000
H    -6.673000000     0.697000000     0.531000000
O     0.033000000    -4.991000000    -1.627000000
H    -0.293000000    -4.302000000    -1.047000000
H     0.338000000    -4.525000000    -2.405000000
O    -4.054000000    -0.156000000     3.485000000
H    -3.143000000    -0.420000000     3.355000000
H    -4.306000000    -0.567000000     4.312000000
O    -3.741000000    -1.719000000    -0.775000000
H    -3.685000000    -1.573000000     0.169000000
H    -4.383000000    -2.423000000    -0.871000000
O    -4.184000000     2.316000000     4.452000000
H    -4.162000000     1.425000000     4.103000000
H    -4.004000000     2.874000000     3.695000000
O     2.212000000    -5.496000000     0.036000000
H     1.341000000    -5.320000000    -0.317000000
H     2.776000000    -4.845000000    -0.380000000
O     6.577000000    -5.526000000    -0.893000000
H     7.170000000    -4.777000000    -0.963000000
H     5.938000000    -5.391000000    -1.592000000
O     0.316000000    -3.215000000     4.346000000
H     0.100000000    -3.983000000     4.875000000
H     1.010000000    -3.516000000     3.759000000
O     0.983000000     3.760000000    -1.100000000
H     0.231000000     4.334000000    -1.247000000
H     0.911000000     3.093000000    -1.783000000
O     1.966000000    -4.706000000    -3.852000000
H     1.558000000    -3.853000000    -4.005000000
H     2.637000000    -4.535000000    -3.192000000
O     4.178000000    -2.962000000    -6.330000000
H     4.393000000    -2.852000000    -5.404000000
H     4.372000000    -3.881000000    -6.513000000
O     0.946000000     2.847000000    -3.606000000
H     0.095000000     3.264000000    -3.736000000
H     0.854000000     1.983000000    -4.010000000
O     6.928000000     1.398000000    -2.556000000
H     7.881000000     1.360000000    -2.486000000
H     6.630000000     0.550000000    -2.227000000
O     3.770000000     2.414000000     1.814000000
H     4.046000000     3.234000000     2.222000000
H     3.076000000     2.083000000     2.384000000
O     6.043000000    -0.967000000    -1.228000000
H     6.259000000    -1.883000000    -1.405000000
H     5.087000000    -0.950000000    -1.189000000
O    -1.047000000    -2.813000000    -5.760000000
H    -1.109000000    -2.108000000    -5.114000000
H    -0.846000000    -3.594000000    -5.243000000
O     0.493000000     3.411000000     2.058000000
H     0.515000000     2.462000000     2.183000000
H     0.784000000     3.540000000     1.155000000
O     1.468000000    -2.013000000    -3.941000000
H     2.252000000    -1.721000000    -3.475000000
H     1.203000000    -1.254000000    -4.461000000
O     5.151000000    -2.481000000     2.340000000
H     4.534000000    -2.740000000     1.655000000
H     5.609000000    -1.724000000     1.975000000
O    -4.086000000     6.408000000    -1.117000000
H    -4.412000000     5.984000000    -1.911000000
H    -4.120000000     5.724000000    -0.449000000
