144
-2813.11464
O     0.963000000     4.055000000    -0.555000000
H     1.332000000     3.392000000    -1.139000000
H     1.593000000     4.118000000     0.163000000
O     4.117000000    -2.486000000     2.097000000
H     3.636000000    -1.960000000     1.457000000
H     3.648000000    -2.349000000     2.920000000
O     6.632000000     3.566000000    -4.634000000
H     6.085000000     2.791000000    -4.505000000
H     6.239000000     4.234000000    -4.073000000
O    -1.374000000    -3.042000000    -3.593000000
H    -2.292000000    -3.309000000    -3.543000000
H    -1.349000000    -2.403000000    -4.305000000
O     0.216000000     2.143000000    -5.963000000
H    -0.218000000     1.877000000    -6.773000000
H    -0.424000000     2.700000000    -5.520000000
O    -5.342000000    -6.261000000     1.615000000
H    -4.952000000    -5.483000000     1.218000000
H    -5.550000000    -6.830000000     0.874000000
O     1.980000000     2.988000000     3.697000000
H     1.549000000     2.135000000     3.735000000
H     1.893000000     3.341000000     4.583000000
O    -0.015000000     1.363000000     4.232000000
H    -0.485000000     0.629000000     4.627000000
H    -0.698000000     2.001000000     4.026000000
O    -6.424000000     1.135000000     3.046000000
H    -6.104000000     0.352000000     2.597000000
H    -6.549000000     1.777000000     2.347000000
O     5.177000000     1.721000000    -3.412000000
H     4.813000000     1.597000000    -2.536000000
H     4.939000000     0.923000000    -3.885000000
O     2.045000000     6.767000000    -1.262000000
H     2.803000000     6.185000000    -1.317000000
H     1.353000000     6.303000000    -1.733000000
O    -2.684000000    -1.316000000    -5.850000000
H    -2.692000000    -0.392000000    -5.600000000
H    -3.549000000    -1.639000000    -5.598000000
O    -4.067000000    -1.603000000     4.140000000
H    -3.488000000    -2.359000000     4.042000000
H    -4.452000000    -1.481000000     3.272000000
O     2.334000000     3.930000000    -4.599000000
H     2.071000000     3.836000000    -5.515000000
H     2.466000000     3.032000000    -4.294000000
O     2.957000000    -2.144000000     4.639000000
H     2.470000000    -1.353000000     4.870000000
H     3.729000000    -2.122000000     5.205000000
O     2.076000000     0.341000000    -5.073000000
H     1.311000000     0.909000000    -5.162000000
H     2.499000000     0.634000000    -4.266000000
O     5.562000000     1.016000000     1.768000000
H     6.062000000     0.200000000     1.795000000
H     5.197000000     1.043000000     0.883000000
O     4.715000000     3.938000000    -1.146000000
H     4.137000000     3.183000000    -1.027000000
H     5.223000000     3.980000000    -0.336000000
O     5.337000000    -0.465000000    -0.824000000
H     4.567000000     0.092000000    -0.944000000
H     4.994000000    -1.358000000    -0.851000000
O     1.259000000    -3.562000000     0.729000000
H     0.925000000    -3.524000000    -0.168000000
H     1.253000000    -2.651000000     1.025000000
O    -6.737000000    -0.287000000    -1.700000000
H    -6.042000000    -0.802000000    -1.291000000
H    -7.019000000    -0.815000000    -2.447000000
O    -3.097000000     4.518000000     2.455000000
H    -3.306000000     3.584000000     2.456000000
H    -3.167000000     4.778000000     1.536000000
O    -2.124000000    -6.732000000     2.319000000
H    -1.410000000    -7.022000000     1.752000000
H    -2.920000000    -6.950000000     1.833000000
O     2.179000000    -5.205000000     2.926000000
H     1.480000000    -4.983000000     3.541000000
H     2.037000000    -4.622000000     2.181000000
O     4.347000000    -2.862000000    -1.144000000
H     3.876000000    -2.883000000    -1.977000000
H     4.005000000    -3.611000000    -0.657000000
O    -3.666000000     1.395000000    -5.567000000
H    -3.881000000     2.305000000    -5.771000000
H    -3.820000000     1.317000000    -4.626000000
O     4.269000000     0.262000000    -6.727000000
H     3.499000000     0.297000000    -6.159000000
H     4.849000000    -0.372000000    -6.306000000
O    -5.520000000    -1.168000000     1.858000000
H    -5.298000000    -1.786000000     1.162000000
H    -6.437000000    -1.353000000     2.060000000
O    -6.185000000     1.555000000     0.187000000
H    -6.359000000     0.836000000    -0.421000000
H    -5.256000000     1.753000000     0.064000000
O    -1.832000000     4.272000000    -1.024000000
H    -0.998000000     4.440000000    -0.586000000
H    -1.641000000     4.386000000    -1.955000000
O     4.726000000     5.274000000    -3.400000000
H     4.843000000     4.774000000    -2.592000000
H     4.061000000     4.788000000    -3.888000000
O    -1.538000000    -0.418000000     5.356000000
H    -1.562000000    -1.349000000     5.136000000
H    -2.421000000    -0.224000000     5.672000000
O    -1.409000000    -4.586000000    -0.928000000
H    -1.328000000    -3.828000000    -1.507000000
H    -0.571000000    -5.041000000    -1.011000000
O    -0.258000000     4.299000000    -3.606000000
H    -0.305000000     3.551000000    -3.011000000
H     0.674000000     4.383000000    -3.811000000
O    -2.971000000     1.877000000     2.585000000
H    -2.804000000     2.206000000     3.468000000
H    -2.874000000     0.927000000     2.661000000
O     0.491000000    -4.214000000     4.945000000
H    -0.347000000    -4.048000000     5.376000000
H     1.091000000    -3.578000000     5.335000000
O    -2.617000000    -4.104000000     4.011000000
H    -2.313000000    -4.321000000     4.893000000
H    -2.386000000    -4.868000000     3.483000000
O    -4.843000000    -2.116000000    -0.944000000
H    -5.279000000    -2.428000000    -1.737000000
H    -4.410000000    -2.893000000    -0.588000000
O    -3.924000000    -4.673000000    -0.079000000
H    -4.016000000    -5.294000000    -0.801000000
H    -2.996000000    -4.438000000    -0.082000000
O    -3.671000000     2.056000000    -2.892000000
H    -4.610000000     2.243000000    -2.869000000
H    -3.440000000     1.876000000    -1.981000000
O     3.051000000     3.447000000     1.271000000
H     3.575000000     2.647000000     1.274000000
H     2.695000000     3.504000000     2.158000000
O     0.861000000    -3.082000000    -2.071000000
H     1.604000000    -3.001000000    -2.669000000
H     0.121000000    -2.717000000    -2.557000000
O    -3.465000000     2.320000000    -0.194000000
H    -2.818000000     3.024000000    -0.244000000
H    -3.212000000     1.818000000     0.581000000
O     4.881000000    -0.885000000    -3.964000000
H     5.559000000    -1.555000000    -3.884000000
H     4.057000000    -1.367000000    -3.889000000
O     7.477000000    -0.634000000    -2.810000000
H     7.141000000    -0.024000000    -3.467000000
H     6.802000000    -0.652000000    -2.132000000
O    -3.927000000     0.680000000     5.699000000
H    -4.558000000     1.337000000     5.406000000
H    -4.270000000    -0.148000000     5.363000000
O     1.368000000    -2.101000000    -5.997000000
H     1.521000000    -1.313000000    -5.476000000
H     1.723000000    -1.891000000    -6.861000000
O     1.639000000    -0.049000000     5.789000000
H     1.200000000     0.425000000     5.084000000
H     2.349000000     0.532000000     6.063000000
