144
-2832.67910
O     5.035000000     0.136000000     0.859000000
H     4.683000000    -0.612000000     0.377000000
H     5.026000000     0.855000000     0.226000000
O    -3.004000000     3.826000000    -4.945000000
H    -2.515000000     4.130000000    -4.180000000
H    -3.054000000     4.592000000    -5.517000000
O     1.513000000    -3.108000000     3.067000000
H     0.587000000    -3.349000000     3.041000000
H     1.895000000    -3.546000000     2.307000000
O     0.246000000     4.207000000     3.340000000
H    -0.163000000     4.153000000     2.476000000
H     1.181000000     4.299000000     3.156000000
O    -0.869000000     5.169000000     0.241000000
H    -0.678000000     6.054000000    -0.071000000
H    -0.282000000     4.606000000    -0.263000000
O    -5.348000000    -1.307000000    -1.843000000
H    -5.063000000    -0.622000000    -1.239000000
H    -5.980000000    -1.822000000    -1.340000000
O     0.656000000     4.789000000    -5.859000000
H     0.860000000     4.830000000    -4.925000000
H     1.402000000     5.210000000    -6.286000000
O    -4.336000000    -0.897000000     2.163000000
H    -3.450000000    -1.177000000     2.393000000
H    -4.244000000    -0.496000000     1.299000000
O    -1.086000000    -1.016000000     5.839000000
H    -1.848000000    -0.448000000     5.718000000
H    -0.340000000    -0.416000000     5.849000000
O     3.177000000     6.549000000     1.770000000
H     3.105000000     5.639000000     2.059000000
H     2.432000000     6.990000000     2.179000000
O     1.991000000     4.574000000    -3.290000000
H     2.371000000     5.082000000    -2.574000000
H     1.346000000     4.008000000    -2.866000000
O     6.820000000    -1.026000000     2.820000000
H     6.729000000    -1.873000000     2.384000000
H     6.280000000    -0.430000000     2.300000000
O     3.421000000    -6.228000000    -1.402000000
H     3.270000000    -7.152000000    -1.600000000
H     2.780000000    -6.021000000    -0.721000000
O     4.190000000    -3.389000000     4.096000000
H     3.352000000    -3.191000000     3.679000000
H     4.434000000    -2.577000000     4.541000000
O    -4.755000000    -4.635000000    -0.973000000
H    -5.189000000    -5.477000000    -0.840000000
H    -5.452000000    -3.987000000    -0.865000000
O     3.638000000     5.537000000    -0.899000000
H     3.714000000     6.112000000    -0.138000000
H     3.085000000     4.815000000    -0.600000000
O    -1.047000000    -2.525000000    -4.294000000
H    -1.541000000    -3.027000000    -3.647000000
H    -1.297000000    -2.907000000    -5.135000000
O    -2.298000000    -3.049000000     4.728000000
H    -1.707000000    -3.791000000     4.605000000
H    -1.758000000    -2.378000000     5.143000000
O    -4.819000000    -2.104000000     6.008000000
H    -5.637000000    -2.475000000     5.676000000
H    -4.140000000    -2.483000000     5.449000000
O     1.483000000    -0.401000000     4.361000000
H     1.471000000    -0.608000000     5.295000000
H     1.429000000    -1.252000000     3.926000000
O     4.759000000     1.936000000    -1.263000000
H     4.480000000     1.453000000    -2.041000000
H     4.071000000     2.587000000    -1.126000000
O     2.283000000    -2.138000000    -2.878000000
H     2.310000000    -2.969000000    -3.353000000
H     2.134000000    -1.479000000    -3.555000000
O    -2.923000000     2.527000000     2.828000000
H    -2.873000000     2.571000000     3.783000000
H    -2.522000000     1.687000000     2.606000000
O     0.135000000    -3.979000000    -1.909000000
H     0.392000000    -3.057000000    -1.906000000
H    -0.811000000    -3.964000000    -2.057000000
O    -4.476000000    -2.564000000    -4.328000000
H    -4.820000000    -2.080000000    -3.576000000
H    -5.058000000    -3.320000000    -4.412000000
O     2.544000000     7.573000000    -2.653000000
H     3.479000000     7.376000000    -2.706000000
H     2.270000000     7.681000000    -3.564000000
O    -3.420000000     4.226000000     0.763000000
H    -3.407000000     3.500000000     1.387000000
H    -2.505000000     4.497000000     0.692000000
O     1.221000000    -5.674000000     0.344000000
H     1.504000000    -5.040000000     1.003000000
H     0.793000000    -5.145000000    -0.330000000
O    -2.702000000    -4.517000000    -2.750000000
H    -3.472000000    -4.036000000    -3.054000000
H    -2.958000000    -4.863000000    -1.895000000
O    -1.295000000     0.426000000     2.697000000
H    -0.860000000     0.894000000     1.984000000
H    -0.605000000    -0.109000000     3.088000000
O    -0.511000000    -7.766000000    -0.887000000
H    -0.562000000    -6.952000000    -0.386000000
H    -0.513000000    -8.456000000    -0.224000000
O    -3.938000000     2.882000000    -1.697000000
H    -3.739000000     3.584000000    -1.078000000
H    -3.258000000     2.953000000    -2.367000000
O     0.059000000    -7.199000000     3.042000000
H     0.325000000    -8.008000000     2.605000000
H     0.704000000    -7.079000000     3.738000000
O     3.685000000     3.858000000    -5.213000000
H     2.902000000     3.814000000    -4.665000000
H     3.575000000     4.659000000    -5.725000000
O     0.038000000     7.054000000    -1.540000000
H    -0.235000000     7.939000000    -1.300000000
H     0.966000000     7.140000000    -1.760000000
O     2.870000000     3.938000000     2.128000000
H     2.502000000     3.589000000     1.316000000
H     3.736000000     3.535000000     2.192000000
O     6.689000000     4.531000000    -0.685000000
H     7.453000000     4.006000000    -0.922000000
H     6.021000000     4.286000000    -1.325000000
O     3.396000000    -3.838000000     0.873000000
H     4.253000000    -4.218000000     0.678000000
H     3.328000000    -3.087000000     0.283000000
O    -3.594000000    -4.176000000     2.681000000
H    -4.322000000    -3.628000000     2.391000000
H    -3.258000000    -3.735000000     3.461000000
O     5.271000000     2.940000000     1.565000000
H     5.481000000     3.169000000     0.660000000
H     5.421000000     1.996000000     1.615000000
O     4.684000000    -0.049000000    -3.151000000
H     4.996000000     0.105000000    -4.043000000
H     3.830000000    -0.464000000    -3.264000000
O    -3.136000000    -7.767000000    -0.666000000
H    -2.362000000    -7.803000000    -1.228000000
H    -2.834000000    -7.326000000     0.128000000
O     4.011000000     0.988000000     3.835000000
H     3.066000000     0.938000000     3.976000000
H     4.228000000     0.177000000     3.376000000
O    -0.521000000    -4.851000000     4.201000000
H    -0.086000000    -5.471000000     3.616000000
H    -0.499000000    -5.274000000     5.059000000
O     3.966000000    -1.903000000    -0.811000000
H     4.455000000    -1.301000000    -1.371000000
H     3.196000000    -2.140000000    -1.328000000
O    -1.287000000     4.412000000    -2.688000000
H    -1.124000000     5.323000000    -2.445000000
H    -0.472000000     3.958000000    -2.475000000
O    -4.538000000     0.560000000    -0.064000000
H    -5.420000000     0.915000000     0.044000000
H    -4.133000000     1.123000000    -0.724000000
O    -2.006000000    -6.302000000     1.501000000
H    -2.638000000    -5.602000000     1.667000000
H    -1.347000000    -6.198000000     2.187000000
