144
-2834.79212
O     4.652000000     0.526000000     1.879000000
H     5.270000000     0.605000000     2.606000000
H     3.850000000     0.192000000     2.281000000
O     0.165000000     5.326000000    -5.263000000
H     0.151000000     5.738000000    -4.399000000
H    -0.545000000     5.751000000    -5.743000000
O     1.837000000    -4.091000000     2.695000000
H     0.900000000    -4.273000000     2.619000000
H     2.235000000    -4.577000000     1.973000000
O    -0.013000000    -1.161000000    -3.470000000
H     0.565000000    -0.754000000    -2.826000000
H    -0.152000000    -2.049000000    -3.141000000
O     5.232000000     0.804000000    -3.674000000
H     4.904000000     1.390000000    -4.356000000
H     6.174000000     0.971000000    -3.647000000
O     0.672000000     5.252000000     3.294000000
H     0.398000000     5.472000000     2.403000000
H     0.548000000     6.062000000     3.789000000
O     0.110000000     6.046000000     0.756000000
H     0.477000000     6.688000000     0.148000000
H     0.060000000     5.236000000     0.248000000
O    -3.489000000    -0.351000000    -3.387000000
H    -3.633000000    -0.600000000    -2.474000000
H    -2.594000000    -0.014000000    -3.406000000
O     1.086000000     2.681000000    -4.643000000
H     0.940000000     3.615000000    -4.791000000
H     1.862000000     2.645000000    -4.083000000
O    -4.702000000     0.769000000     1.712000000
H    -4.629000000    -0.075000000     1.268000000
H    -4.627000000     1.416000000     1.011000000
O    -0.205000000    -0.492000000     5.329000000
H     0.597000000    -0.125000000     5.701000000
H    -0.210000000    -0.186000000     4.422000000
O     3.096000000     7.149000000     0.306000000
H     2.708000000     6.303000000     0.532000000
H     3.343000000     7.531000000     1.148000000
O     2.684000000     4.180000000    -2.724000000
H     2.739000000     5.128000000    -2.609000000
H     2.319000000     3.860000000    -1.898000000
O     3.102000000    -3.029000000     4.914000000
H     2.655000000    -3.516000000     4.221000000
H     3.111000000    -2.124000000     4.602000000
O    -5.137000000    -2.304000000     1.220000000
H    -5.218000000    -2.715000000     2.080000000
H    -6.031000000    -2.288000000     0.877000000
O    -1.369000000    -2.878000000     4.354000000
H    -1.040000000    -3.704000000     4.709000000
H    -0.793000000    -2.211000000     4.728000000
O    -1.201000000     1.194000000    -3.981000000
H    -0.891000000     0.366000000    -3.614000000
H    -0.416000000     1.601000000    -4.349000000
O     2.251000000    -0.760000000     3.430000000
H     1.462000000    -0.219000000     3.470000000
H     2.170000000    -1.241000000     2.607000000
O     4.538000000     2.334000000    -0.135000000
H     4.414000000     1.781000000     0.637000000
H     3.664000000     2.671000000    -0.331000000
O    -2.518000000     2.741000000     2.950000000
H    -3.095000000     2.073000000     2.580000000
H    -2.354000000     2.446000000     3.845000000
O     2.059000000    -5.246000000    -2.494000000
H     2.986000000    -5.026000000    -2.589000000
H     1.600000000    -4.424000000    -2.663000000
O    -0.307000000    -3.879000000    -3.000000000
H    -0.897000000    -4.114000000    -2.284000000
H    -0.754000000    -4.186000000    -3.789000000
O    -4.190000000    -3.181000000    -1.450000000
H    -5.030000000    -3.555000000    -1.716000000
H    -4.293000000    -2.998000000    -0.517000000
O     3.742000000     6.601000000    -2.239000000
H     4.696000000     6.649000000    -2.302000000
H     3.536000000     7.012000000    -1.400000000
O    -2.461000000     5.125000000     1.885000000
H    -2.550000000     4.257000000     2.277000000
H    -1.517000000     5.257000000     1.807000000
O     1.063000000    -7.623000000    -1.414000000
H     0.415000000    -7.208000000    -0.847000000
H     1.348000000    -6.925000000    -2.005000000
O    -2.397000000    -5.128000000    -1.748000000
H    -2.981000000    -5.850000000    -1.514000000
H    -2.955000000    -4.351000000    -1.723000000
O    -0.048000000     0.438000000     2.789000000
H    -0.330000000     1.330000000     2.992000000
H    -0.039000000     0.403000000     1.832000000
O    -2.405000000     4.823000000    -0.943000000
H    -1.573000000     4.350000000    -0.949000000
H    -2.478000000     5.167000000    -0.052000000
O    -3.773000000     6.171000000    -2.984000000
H    -3.405000000     5.907000000    -3.827000000
H    -3.320000000     5.623000000    -2.343000000
O    -0.069000000    -7.104000000     1.822000000
H    -0.053000000    -7.816000000     2.462000000
H     0.854000000    -6.898000000     1.670000000
O     4.089000000     3.207000000    -4.659000000
H     3.608000000     3.441000000    -3.865000000
H     3.865000000     3.895000000    -5.286000000
O     0.415000000     8.213000000    -0.785000000
H     0.027000000     7.822000000    -1.567000000
H     1.213000000     8.639000000    -1.100000000
O     3.010000000     4.604000000     1.866000000
H     2.301000000     4.655000000     2.507000000
H     2.598000000     4.236000000     1.084000000
O    -4.830000000    -4.648000000     4.563000000
H    -4.413000000    -4.546000000     3.707000000
H    -4.664000000    -5.559000000     4.804000000
O     3.140000000    -5.472000000     0.559000000
H     3.699000000    -6.117000000     0.125000000
H     3.217000000    -4.686000000     0.017000000
O    -3.096000000    -4.026000000     2.578000000
H    -3.542000000    -3.317000000     2.115000000
H    -2.558000000    -3.582000000     3.234000000
O     6.899000000     2.468000000     1.188000000
H     7.443000000     1.692000000     1.053000000
H     6.149000000     2.338000000     0.608000000
O     5.173000000    -0.129000000    -1.197000000
H     5.260000000     0.386000000    -1.999000000
H     5.259000000     0.511000000    -0.491000000
O     7.246000000    -1.772000000    -1.132000000
H     7.150000000    -2.539000000    -1.696000000
H     6.399000000    -1.329000000    -1.185000000
O    -4.499000000    -6.617000000    -0.660000000
H    -4.374000000    -7.461000000    -1.093000000
H    -4.079000000    -6.721000000     0.194000000
O    -5.665000000     0.992000000    -4.488000000
H    -6.372000000     0.997000000    -3.843000000
H    -4.940000000     0.551000000    -4.046000000
O     5.771000000     4.914000000     2.135000000
H     5.892000000     4.491000000     1.285000000
H     4.856000000     4.744000000     2.360000000
O    -0.403000000    -5.432000000     4.480000000
H    -0.520000000    -5.958000000     3.689000000
H    -0.470000000    -6.060000000     5.199000000
O     3.753000000    -2.803000000    -1.507000000
H     4.388000000    -2.089000000    -1.443000000
H     3.868000000    -3.147000000    -2.393000000
O    -0.231000000     6.434000000    -2.757000000
H    -1.014000000     6.880000000    -2.433000000
H    -0.389000000     5.508000000    -2.573000000
O    -4.361000000     2.636000000    -0.268000000
H    -5.237000000     2.997000000    -0.402000000
H    -3.785000000     3.210000000    -0.772000000
O    -2.967000000    -6.893000000     1.737000000
H    -2.866000000    -5.983000000     2.014000000
H    -2.071000000    -7.224000000     1.667000000
