144
-2800.75256
O     7.195000000     0.834000000     2.225000000
H     7.274000000     0.591000000     1.302000000
H     6.300000000     0.589000000     2.460000000
O     2.787000000     0.115000000    -3.200000000
H     3.618000000     0.169000000    -3.671000000
H     2.551000000     1.026000000    -3.025000000
O    -1.033000000     6.184000000    -3.422000000
H    -1.630000000     6.337000000    -4.154000000
H    -1.530000000     5.627000000    -2.821000000
O     1.897000000     5.816000000    -3.835000000
H     2.538000000     5.731000000    -3.130000000
H     1.050000000     5.821000000    -3.389000000
O    -5.091000000     3.217000000    -1.161000000
H    -5.761000000     3.435000000    -1.809000000
H    -5.214000000     2.283000000    -0.994000000
O     4.534000000     4.116000000     2.962000000
H     4.901000000     4.140000000     2.078000000
H     3.933000000     3.371000000     2.951000000
O    -2.285000000    -1.634000000    -3.089000000
H    -2.497000000    -2.562000000    -2.988000000
H    -1.463000000    -1.523000000    -2.613000000
O    -5.095000000    -3.891000000     4.903000000
H    -4.791000000    -4.753000000     4.619000000
H    -4.486000000    -3.275000000     4.494000000
O    -3.395000000    -2.656000000    -5.353000000
H    -2.873000000    -2.156000000    -4.726000000
H    -3.217000000    -3.571000000    -5.138000000
O     0.685000000    -3.901000000    -4.131000000
H     0.932000000    -4.693000000    -3.654000000
H     0.539000000    -3.246000000    -3.448000000
O    -2.840000000    -2.739000000     3.899000000
H    -2.159000000    -2.141000000     4.206000000
H    -2.389000000    -3.324000000     3.289000000
O    -1.329000000    -5.097000000     5.432000000
H    -1.327000000    -5.126000000     4.475000000
H    -0.586000000    -5.642000000     5.690000000
O    -0.410000000    -1.334000000     3.801000000
H     0.500000000    -1.301000000     4.095000000
H    -0.474000000    -0.644000000     3.141000000
O     4.720000000     4.180000000     0.217000000
H     4.203000000     3.379000000     0.133000000
H     4.191000000     4.853000000    -0.212000000
O     5.019000000     0.408000000    -1.410000000
H     4.380000000    -0.300000000    -1.327000000
H     4.549000000     1.190000000    -1.119000000
O    -1.661000000    -4.688000000     2.684000000
H    -2.094000000    -5.219000000     2.016000000
H    -0.752000000    -4.629000000     2.392000000
O     1.546000000    -4.514000000     5.901000000
H     2.021000000    -4.020000000     6.570000000
H     1.315000000    -3.861000000     5.240000000
O     0.832000000    -1.641000000    -2.436000000
H     1.156000000    -1.520000000    -1.543000000
H     1.424000000    -1.119000000    -2.978000000
O     2.150000000    -1.633000000     4.339000000
H     2.705000000    -1.951000000     3.626000000
H     2.766000000    -1.303000000     4.993000000
O     7.469000000     0.369000000    -0.419000000
H     7.689000000     1.279000000    -0.621000000
H     6.607000000     0.238000000    -0.814000000
O     5.235000000     7.093000000    -1.641000000
H     5.954000000     6.689000000    -1.155000000
H     4.450000000     6.644000000    -1.326000000
O    -3.359000000     0.063000000     3.611000000
H    -2.959000000    -0.753000000     3.310000000
H    -2.851000000     0.307000000     4.385000000
O    -4.954000000     4.704000000     1.006000000
H    -5.706000000     5.139000000     0.604000000
H    -4.781000000     3.953000000     0.439000000
O     0.417000000     7.643000000    -0.971000000
H    -0.074000000     7.987000000    -0.225000000
H     0.219000000     6.706000000    -0.977000000
O     0.895000000    -4.925000000     1.508000000
H     1.335000000    -4.102000000     1.296000000
H     0.880000000    -5.409000000     0.682000000
O     1.967000000    -4.393000000    -1.230000000
H     1.045000000    -4.643000000    -1.295000000
H     2.448000000    -5.193000000    -1.439000000
O     0.490000000     1.084000000     5.246000000
H     0.155000000     0.242000000     5.556000000
H     0.704000000     0.932000000     4.325000000
O    -3.636000000    -4.039000000    -2.094000000
H    -3.891000000    -4.638000000    -2.795000000
H    -4.399000000    -4.008000000    -1.516000000
O     4.179000000    -2.144000000    -0.840000000
H     4.970000000    -2.462000000    -1.276000000
H     3.487000000    -2.736000000    -1.137000000
O     5.422000000     3.071000000    -3.016000000
H     5.694000000     3.066000000    -3.933000000
H     4.494000000     2.835000000    -3.039000000
O     0.981000000     4.070000000     3.208000000
H     0.334000000     4.097000000     3.913000000
H     0.921000000     4.931000000     2.795000000
O     7.217000000     3.127000000    -0.894000000
H     6.508000000     3.161000000    -1.536000000
H     7.134000000     3.944000000    -0.402000000
O    -1.060000000    -5.129000000    -1.247000000
H    -1.393000000    -6.026000000    -1.211000000
H    -1.802000000    -4.610000000    -1.554000000
O    -0.674000000     1.069000000     2.511000000
H    -0.448000000     0.896000000     1.597000000
H    -1.115000000     1.918000000     2.493000000
O    -5.818000000     0.425000000    -0.865000000
H    -5.866000000     0.761000000     0.030000000
H    -5.828000000    -0.527000000    -0.764000000
O    -6.316000000    -4.628000000    -0.874000000
H    -6.472000000    -4.176000000    -1.703000000
H    -7.183000000    -4.925000000    -0.597000000
O    -0.466000000     5.126000000    -0.326000000
H     0.250000000     4.494000000    -0.263000000
H    -0.316000000     5.731000000     0.401000000
O    -2.697000000     4.825000000    -1.872000000
H    -3.474000000     4.383000000    -1.530000000
H    -2.129000000     4.935000000    -1.109000000
O     6.468000000    -0.180000000    -3.515000000
H     5.961000000     0.139000000    -2.769000000
H     7.381000000    -0.047000000    -3.259000000
O     3.069000000     5.771000000    -1.151000000
H     2.453000000     5.044000000    -1.062000000
H     2.679000000     6.479000000    -0.637000000
O     2.497000000     1.703000000     2.740000000
H     1.877000000     2.415000000     2.896000000
H     2.793000000     1.836000000     1.839000000
O     1.947000000    -6.293000000     3.448000000
H     1.551000000    -5.720000000     2.793000000
H     2.077000000    -5.730000000     4.211000000
O     4.699000000     0.210000000     3.112000000
H     4.306000000    -0.636000000     2.897000000
H     3.972000000     0.831000000     3.065000000
O    -3.430000000    -5.539000000     0.776000000
H    -3.478000000    -6.130000000     0.025000000
H    -4.001000000    -4.807000000     0.541000000
O    -3.114000000     2.504000000     2.442000000
H    -3.970000000     2.632000000     2.033000000
H    -3.102000000     1.580000000     2.689000000
O     3.712000000    -2.107000000     2.101000000
H     4.355000000    -2.809000000     2.202000000
H     3.888000000    -1.744000000     1.233000000
O     2.627000000     2.985000000    -3.313000000
H     2.478000000     3.628000000    -4.006000000
H     2.075000000     3.280000000    -2.590000000
O    -4.260000000     0.566000000    -3.307000000
H    -3.461000000     0.040000000    -3.292000000
H    -4.435000000     0.763000000    -2.387000000
