144
-2808.43510
O    -0.616000000     7.094000000     0.651000000
H    -1.420000000     6.577000000     0.608000000
H     0.080000000     6.445000000     0.758000000
O     3.300000000    -1.380000000    -3.084000000
H     3.784000000    -0.629000000    -2.742000000
H     2.469000000    -1.013000000    -3.384000000
O     2.415000000     3.195000000     4.598000000
H     2.258000000     4.067000000     4.236000000
H     1.688000000     2.666000000     4.270000000
O    -0.055000000     2.303000000    -4.195000000
H     0.171000000     1.430000000    -3.874000000
H    -0.695000000     2.144000000    -4.890000000
O     2.842000000     5.020000000    -4.969000000
H     2.691000000     5.792000000    -4.424000000
H     3.075000000     4.330000000    -4.348000000
O    -5.324000000     2.519000000    -2.709000000
H    -5.504000000     2.755000000    -1.799000000
H    -4.387000000     2.684000000    -2.818000000
O     7.288000000     3.412000000     1.674000000
H     8.223000000     3.387000000     1.469000000
H     7.086000000     2.528000000     1.979000000
O    -0.183000000     2.672000000     4.254000000
H    -0.986000000     2.946000000     3.812000000
H    -0.410000000     2.669000000     5.184000000
O     0.326000000    -0.094000000    -3.019000000
H     0.353000000     0.133000000    -2.090000000
H    -0.606000000    -0.189000000    -3.215000000
O    -4.733000000    -5.128000000     2.881000000
H    -4.683000000    -5.214000000     3.833000000
H    -3.895000000    -5.467000000     2.566000000
O    -2.597000000    -0.377000000    -3.014000000
H    -3.369000000    -0.687000000    -3.488000000
H    -2.523000000    -0.968000000    -2.264000000
O    -2.220000000    -5.026000000    -4.362000000
H    -2.321000000    -4.537000000    -5.178000000
H    -1.449000000    -4.640000000    -3.945000000
O    -5.280000000    -1.927000000     2.784000000
H    -4.979000000    -1.789000000     3.682000000
H    -5.142000000    -2.860000000     2.626000000
O    -1.662000000    -5.260000000     4.779000000
H    -1.410000000    -4.935000000     3.915000000
H    -1.121000000    -4.759000000     5.390000000
O    -2.008000000    -2.996000000     3.213000000
H    -1.766000000    -3.445000000     2.403000000
H    -1.190000000    -2.936000000     3.707000000
O     5.461000000     3.412000000    -0.318000000
H     4.713000000     2.919000000     0.020000000
H     6.087000000     3.423000000     0.405000000
O     4.675000000     0.182000000    -1.297000000
H     4.012000000     0.776000000    -0.947000000
H     5.477000000     0.412000000    -0.827000000
O    -2.420000000    -7.325000000     2.297000000
H    -1.890000000    -7.082000000     1.538000000
H    -2.345000000    -6.578000000     2.891000000
O     2.140000000    -5.188000000     3.280000000
H     2.693000000    -5.551000000     2.588000000
H     2.740000000    -4.675000000     3.821000000
O     6.420000000    -1.953000000     2.850000000
H     6.036000000    -2.407000000     2.100000000
H     7.299000000    -2.322000000     2.929000000
O    -0.098000000    -3.687000000    -3.294000000
H     0.310000000    -3.896000000    -2.454000000
H     0.596000000    -3.263000000    -3.799000000
O     0.048000000    -2.425000000     4.802000000
H     0.961000000    -2.420000000     5.090000000
H    -0.133000000    -1.516000000     4.564000000
O     4.118000000    -3.751000000     4.351000000
H     3.881000000    -2.850000000     4.129000000
H     5.075000000    -3.757000000     4.334000000
O     3.326000000     3.406000000    -2.561000000
H     2.883000000     3.176000000    -1.744000000
H     3.980000000     4.056000000    -2.304000000
O    -7.857000000     0.271000000    -1.151000000
H    -7.311000000     0.160000000    -0.372000000
H    -8.161000000     1.177000000    -1.104000000
O    -6.556000000     0.026000000     1.147000000
H    -5.786000000    -0.251000000     1.644000000
H    -7.246000000    -0.580000000     1.417000000
O    -3.013000000     3.610000000    -0.064000000
H    -3.078000000     4.451000000     0.389000000
H    -3.906000000     3.266000000    -0.060000000
O    -0.409000000    -5.027000000     2.315000000
H     0.522000000    -4.958000000     2.525000000
H    -0.429000000    -5.387000000     1.429000000
O     1.094000000    -5.042000000    -1.287000000
H     0.413000000    -5.481000000    -0.777000000
H     1.887000000    -5.548000000    -1.114000000
O    -4.658000000    -3.877000000    -3.350000000
H    -5.046000000    -4.316000000    -2.593000000
H    -4.033000000    -4.512000000    -3.701000000
O     3.005000000    -2.928000000    -0.749000000
H     3.339000000    -2.395000000    -1.471000000
H     2.251000000    -3.387000000    -1.120000000
O    -5.796000000     3.034000000    -0.093000000
H    -6.471000000     2.363000000     0.010000000
H    -5.728000000     3.440000000     0.771000000
O     6.446000000     5.305000000    -2.119000000
H     6.916000000     4.504000000    -2.349000000
H     5.800000000     5.027000000    -1.471000000
O    -0.720000000    -6.639000000     0.053000000
H    -1.471000000    -6.399000000    -0.491000000
H    -0.444000000    -7.492000000    -0.282000000
O    -0.595000000    -0.194000000     3.703000000
H    -0.921000000    -0.460000000     2.843000000
H    -0.103000000     0.610000000     3.534000000
O    -0.136000000     7.022000000    -2.168000000
H    -0.436000000     7.361000000    -1.324000000
H     0.459000000     6.307000000    -1.941000000
O    -3.131000000    -5.283000000    -0.770000000
H    -2.906000000    -4.702000000    -1.496000000
H    -3.526000000    -6.048000000    -1.188000000
O     1.521000000     5.289000000     0.786000000
H     1.807000000     4.476000000     0.369000000
H     2.002000000     5.315000000     1.613000000
O     6.473000000     2.252000000    -3.368000000
H     5.907000000     2.372000000    -2.606000000
H     5.868000000     2.092000000    -4.093000000
O     0.515000000     4.285000000    -2.392000000
H     0.940000000     3.937000000    -1.608000000
H     0.506000000     3.549000000    -3.005000000
O     4.523000000     1.584000000     2.958000000
H     4.289000000     2.344000000     3.491000000
H     4.118000000     1.755000000     2.108000000
O    -4.056000000    -2.049000000     5.249000000
H    -4.030000000    -2.739000000     5.912000000
H    -3.305000000    -2.231000000     4.684000000
O     7.062000000     0.849000000     2.877000000
H     6.880000000    -0.087000000     2.800000000
H     6.198000000     1.261000000     2.895000000
O     4.943000000    -0.843000000     4.829000000
H     5.417000000    -1.364000000     4.180000000
H     4.800000000     0.000000000     4.401000000
O    -2.451000000     3.836000000     3.201000000
H    -3.089000000     3.890000000     2.490000000
H    -1.975000000     4.666000000     3.159000000
O     2.629000000     8.128000000    -0.731000000
H     3.119000000     8.758000000    -0.204000000
H     2.385000000     7.437000000    -0.115000000
O     5.228000000    -3.904000000     1.129000000
H     4.795000000    -4.730000000     1.342000000
H     4.724000000    -3.551000000     0.396000000
O    -2.588000000     3.362000000    -2.745000000
H    -2.394000000     3.852000000    -1.947000000
H    -1.791000000     2.863000000    -2.920000000
