144
-2782.21439
O     1.588000000    -1.732000000    -5.422000000
H     1.754000000    -1.123000000    -4.703000000
H     1.749000000    -1.217000000    -6.213000000
O    -1.840000000     1.969000000    -3.950000000
H    -1.978000000     1.616000000    -4.829000000
H    -2.701000000     2.288000000    -3.681000000
O     3.551000000     4.558000000     5.205000000
H     3.835000000     3.785000000     4.716000000
H     3.170000000     4.205000000     6.009000000
O     1.295000000     1.175000000     7.637000000
H     1.419000000     1.766000000     8.379000000
H     2.180000000     1.000000000     7.319000000
O    -0.714000000    -7.125000000     0.172000000
H    -1.453000000    -7.004000000    -0.425000000
H    -0.234000000    -6.298000000     0.129000000
O    -0.468000000     4.537000000     6.671000000
H    -0.288000000     3.797000000     6.091000000
H    -0.047000000     5.284000000     6.244000000
O     2.211000000     6.714000000     2.687000000
H     1.508000000     6.070000000     2.604000000
H     3.002000000     6.239000000     2.431000000
O    -0.365000000    -3.337000000    -4.381000000
H     0.367000000    -2.823000000    -4.721000000
H    -0.469000000    -4.052000000    -5.010000000
O    -6.774000000     0.067000000     0.483000000
H    -7.114000000     0.937000000     0.277000000
H    -5.949000000     0.011000000     0.000000000
O    -0.593000000    -2.851000000     3.979000000
H     0.180000000    -2.300000000     3.860000000
H    -0.567000000    -3.104000000     4.902000000
O    -0.108000000    -1.188000000    -7.625000000
H    -0.588000000    -1.223000000    -6.797000000
H    -0.513000000    -1.867000000    -8.165000000
O    -2.059000000    -1.197000000    -5.497000000
H    -2.882000000    -1.686000000    -5.507000000
H    -1.444000000    -1.772000000    -5.042000000
O    -1.959000000     3.035000000     3.117000000
H    -1.695000000     2.630000000     3.943000000
H    -2.907000000     2.910000000     3.081000000
O    -0.302000000    -0.845000000     6.805000000
H     0.336000000    -0.384000000     7.350000000
H    -0.017000000    -1.759000000     6.825000000
O     5.853000000    -2.012000000     0.388000000
H     5.322000000    -1.825000000    -0.386000000
H     6.564000000    -1.371000000     0.351000000
O    -3.378000000    -2.038000000     3.624000000
H    -2.444000000    -2.014000000     3.830000000
H    -3.657000000    -2.918000000     3.878000000
O     4.331000000    -1.769000000    -1.950000000
H     4.915000000    -1.517000000    -2.665000000
H     3.534000000    -2.071000000    -2.386000000
O     0.227000000     4.657000000     1.890000000
H     0.760000000     3.942000000     1.543000000
H    -0.411000000     4.226000000     2.459000000
O    -2.679000000    -6.859000000    -1.513000000
H    -2.133000000    -6.564000000    -2.241000000
H    -2.949000000    -7.744000000    -1.758000000
O     3.409000000     3.455000000    -1.205000000
H     3.109000000     3.101000000    -0.368000000
H     3.801000000     2.707000000    -1.656000000
O    -4.775000000    -3.159000000     1.057000000
H    -4.003000000    -2.703000000     1.391000000
H    -4.506000000    -3.489000000     0.200000000
O    -3.682000000     0.578000000     3.695000000
H    -3.764000000     0.774000000     2.761000000
H    -3.600000000    -0.375000000     3.732000000
O    -1.896000000     1.442000000    -6.564000000
H    -1.947000000     0.496000000    -6.702000000
H    -2.762000000     1.767000000    -6.808000000
O    -2.271000000    -4.981000000    -3.478000000
H    -1.848000000    -4.141000000    -3.657000000
H    -3.112000000    -4.928000000    -3.932000000
O     4.349000000     2.290000000     3.919000000
H     3.472000000     2.131000000     3.570000000
H     4.857000000     2.590000000     3.166000000
O    -0.143000000     2.548000000     5.116000000
H     0.176000000     1.887000000     5.730000000
H     0.412000000     2.445000000     4.343000000
O    -6.584000000    -3.444000000    -2.404000000
H    -7.431000000    -3.189000000    -2.039000000
H    -6.478000000    -4.360000000    -2.147000000
O     3.486000000    -1.223000000     2.003000000
H     2.833000000    -1.466000000     1.346000000
H     4.323000000    -1.277000000     1.540000000
O    -6.848000000    -0.885000000     3.109000000
H    -6.751000000    -0.443000000     2.266000000
H    -6.024000000    -1.357000000     3.229000000
O     5.940000000     2.751000000     1.583000000
H     6.593000000     2.897000000     0.899000000
H     5.320000000     2.134000000     1.195000000
O    -0.807000000    -4.153000000     1.608000000
H    -1.043000000    -3.468000000     2.233000000
H    -0.901000000    -4.969000000     2.099000000
O    -5.877000000    -0.705000000    -3.111000000
H    -6.062000000    -1.625000000    -2.922000000
H    -6.679000000    -0.244000000    -2.866000000
O     3.446000000    -4.490000000    -0.109000000
H     2.576000000    -4.099000000    -0.039000000
H     3.919000000    -3.916000000    -0.712000000
O    -0.356000000     3.086000000    -2.013000000
H     0.254000000     2.437000000    -1.662000000
H    -0.904000000     2.594000000    -2.625000000
O     7.092000000     4.148000000     3.591000000
H     6.883000000     3.763000000     2.740000000
H     6.450000000     4.850000000     3.701000000
O     3.080000000    -5.757000000    -3.188000000
H     3.214000000    -6.260000000    -2.385000000
H     2.598000000    -4.980000000    -2.906000000
O     2.788000000     0.341000000    -3.984000000
H     3.323000000     0.551000000    -3.219000000
H     2.466000000     1.189000000    -4.290000000
O     3.623000000     4.854000000     1.559000000
H     3.426000000     5.123000000     0.662000000
H     3.256000000     3.973000000     1.631000000
O     5.789000000     4.844000000    -0.675000000
H     6.250000000     4.007000000    -0.619000000
H     4.862000000     4.605000000    -0.709000000
O     1.121000000    -2.973000000     0.215000000
H     0.439000000    -3.558000000     0.544000000
H     0.911000000    -2.121000000     0.600000000
O     1.749000000    -1.343000000     4.160000000
H     1.422000000    -0.452000000     4.284000000
H     2.335000000    -1.280000000     3.406000000
O     4.748000000     1.297000000    -2.495000000
H     5.095000000     2.052000000    -2.970000000
H     5.523000000     0.855000000    -2.149000000
O     5.321000000     6.169000000     3.698000000
H     4.576000000     5.857000000     4.211000000
H     5.161000000     5.836000000     2.815000000
O    -4.007000000     1.537000000     1.181000000
H    -4.445000000     2.218000000     0.671000000
H    -3.078000000     1.642000000     0.973000000
O     1.480000000    -3.909000000    -2.500000000
H     1.133000000    -3.469000000    -1.725000000
H     0.773000000    -3.854000000    -3.143000000
O    -4.378000000     1.250000000    -2.231000000
H    -4.991000000     0.665000000    -2.677000000
H    -3.663000000     0.679000000    -1.949000000
O    -2.582000000     0.649000000     7.111000000
H    -1.847000000     0.069000000     6.913000000
H    -2.777000000     0.482000000     8.033000000
O     1.535000000     5.807000000    -0.831000000
H     0.971000000     5.800000000    -0.057000000
H     1.372000000     4.964000000    -1.254000000
