144
-2776.01643
O    -2.178000000     5.345000000    -0.411000000
H    -1.461000000     5.944000000    -0.621000000
H    -1.763000000     4.484000000    -0.358000000
O     1.078000000    -2.046000000    -4.625000000
H     1.439000000    -1.835000000    -5.486000000
H     0.190000000    -1.690000000    -4.644000000
O    -2.639000000     2.810000000    -3.730000000
H    -2.055000000     2.188000000    -4.164000000
H    -3.273000000     2.261000000    -3.268000000
O     0.167000000    -2.882000000     6.479000000
H     0.451000000    -2.276000000     5.795000000
H     0.978000000    -3.273000000     6.803000000
O     4.275000000     3.555000000     6.925000000
H     3.693000000     2.921000000     6.504000000
H     3.969000000     3.596000000     7.831000000
O     0.302000000     0.466000000     7.305000000
H     0.987000000     0.997000000     7.710000000
H     0.770000000    -0.271000000     6.912000000
O    -2.482000000    -5.393000000     0.669000000
H    -2.482000000    -5.763000000    -0.214000000
H    -1.630000000    -4.964000000     0.748000000
O     2.134000000     3.136000000    -4.408000000
H     3.010000000     2.952000000    -4.747000000
H     2.011000000     4.073000000    -4.558000000
O    -5.326000000    -4.851000000     0.254000000
H    -4.398000000    -4.988000000     0.447000000
H    -5.507000000    -3.965000000     0.567000000
O     2.697000000     7.165000000     2.949000000
H     2.678000000     6.208000000     2.940000000
H     3.376000000     7.397000000     2.315000000
O     0.184000000    -4.235000000    -2.929000000
H     0.520000000    -3.645000000    -3.604000000
H    -0.768000000    -4.171000000    -3.007000000
O    -1.082000000    -1.249000000    -6.228000000
H    -1.826000000    -0.655000000    -6.133000000
H    -1.465000000    -2.060000000    -6.561000000
O    -3.829000000    -2.287000000    -4.755000000
H    -4.205000000    -3.073000000    -5.150000000
H    -3.552000000    -2.566000000    -3.882000000
O    -3.303000000     1.316000000     2.931000000
H    -2.762000000     2.105000000     2.892000000
H    -2.807000000     0.714000000     3.486000000
O    -2.026000000     0.282000000     5.387000000
H    -1.355000000     0.437000000     6.052000000
H    -2.247000000    -0.645000000     5.479000000
O    -1.727000000    -5.010000000    -6.257000000
H    -1.426000000    -5.058000000    -5.350000000
H    -1.799000000    -5.923000000    -6.534000000
O     6.130000000    -1.890000000     1.281000000
H     6.497000000    -1.028000000     1.085000000
H     6.144000000    -1.944000000     2.237000000
O    -2.567000000    -3.042000000     2.933000000
H    -2.657000000    -2.833000000     3.862000000
H    -2.902000000    -3.936000000     2.854000000
O     3.849000000    -3.256000000     0.105000000
H     4.655000000    -2.751000000     0.219000000
H     3.325000000    -2.736000000    -0.504000000
O    -0.317000000     5.496000000     3.686000000
H    -0.002000000     5.324000000     2.798000000
H    -0.613000000     4.643000000     4.004000000
O    -0.373000000     1.495000000    -4.864000000
H     0.243000000     2.222000000    -4.950000000
H     0.156000000     0.713000000    -5.024000000
O     4.079000000     2.956000000    -0.553000000
H     3.569000000     2.511000000     0.124000000
H     4.184000000     2.301000000    -1.243000000
O    -4.586000000    -2.345000000     1.040000000
H    -3.881000000    -2.325000000     1.686000000
H    -4.137000000    -2.399000000     0.196000000
O     3.315000000    -2.386000000    -2.949000000
H     3.368000000    -1.437000000    -3.067000000
H     2.413000000    -2.606000000    -3.182000000
O    -3.698000000    -0.151000000    -6.736000000
H    -4.046000000    -0.624000000    -5.980000000
H    -4.393000000     0.463000000    -6.974000000
O    -2.414000000    -4.229000000    -3.436000000
H    -2.474000000    -4.919000000    -2.775000000
H    -3.222000000    -4.311000000    -3.942000000
O     3.099000000     1.736000000     5.344000000
H     2.498000000     1.688000000     4.601000000
H     3.779000000     1.092000000     5.145000000
O    -0.430000000     2.808000000     4.142000000
H    -0.241000000     2.648000000     5.066000000
H     0.268000000     2.351000000     3.672000000
O    -6.120000000    -4.728000000    -2.325000000
H    -6.985000000    -4.319000000    -2.318000000
H    -5.858000000    -4.749000000    -1.404000000
O     2.259000000    -3.026000000     2.847000000
H     2.815000000    -2.838000000     2.092000000
H     2.845000000    -3.441000000     3.479000000
O     5.299000000     1.390000000     3.400000000
H     5.555000000     0.471000000     3.325000000
H     4.536000000     1.473000000     2.827000000
O     6.746000000     3.700000000    -0.937000000
H     5.888000000     3.279000000    -0.888000000
H     7.243000000     3.160000000    -1.551000000
O    -5.093000000    -1.698000000    -2.019000000
H    -5.893000000    -2.221000000    -1.978000000
H    -5.070000000    -1.366000000    -2.917000000
O    -0.076000000     3.131000000    -0.948000000
H     0.275000000     2.240000000    -0.943000000
H    -0.301000000     3.295000000    -1.863000000
O     6.438000000     2.461000000     5.427000000
H     6.280000000     2.120000000     4.547000000
H     5.606000000     2.859000000     5.683000000
O     3.739000000     0.725000000    -3.304000000
H     3.920000000     0.361000000    -4.171000000
H     3.033000000     1.354000000    -3.451000000
O     2.893000000     4.387000000     3.281000000
H     2.962000000     3.479000000     2.988000000
H     2.175000000     4.381000000     3.913000000
O     5.872000000     4.854000000     1.940000000
H     5.012000000     4.437000000     1.987000000
H     6.366000000     4.314000000     1.322000000
O    -0.221000000    -3.802000000     1.478000000
H    -0.916000000    -3.456000000     2.037000000
H     0.586000000    -3.450000000     1.853000000
O     4.340000000    -1.302000000     5.770000000
H     3.449000000    -1.017000000     5.567000000
H     4.381000000    -2.204000000     5.452000000
O     1.457000000    -1.022000000     4.724000000
H     1.573000000    -0.141000000     4.368000000
H     1.545000000    -1.600000000     3.966000000
O     6.535000000     1.482000000    -2.605000000
H     7.194000000     0.916000000    -2.202000000
H     5.797000000     0.899000000    -2.786000000
O     4.409000000     5.839000000     5.307000000
H     4.501000000     5.218000000     6.029000000
H     3.954000000     5.346000000     4.624000000
O    -5.996000000     1.053000000     1.890000000
H    -5.817000000     1.877000000     1.435000000
H    -5.140000000     0.766000000     2.208000000
O     0.666000000    -5.655000000    -0.422000000
H     0.478000000    -4.988000000     0.239000000
H     0.615000000    -5.188000000    -1.255000000
O    -4.685000000     1.252000000    -2.339000000
H    -5.264000000     1.094000000    -3.085000000
H    -4.543000000     0.385000000    -1.959000000
O     0.547000000     4.911000000     1.011000000
H     0.241000000     5.723000000     0.608000000
H     0.492000000     4.260000000     0.311000000
O     2.528000000     5.037000000    -1.365000000
H     2.110000000     5.420000000    -0.594000000
H     3.081000000     4.338000000    -1.014000000
