144
-2829.46731
O    -0.140000000    -3.640000000    -5.338000000
H    -0.633000000    -3.110000000    -5.964000000
H    -0.541000000    -4.507000000    -5.391000000
O    -3.700000000     3.750000000    -4.602000000
H    -3.011000000     4.017000000    -5.211000000
H    -3.296000000     3.067000000    -4.067000000
O    -4.259000000     4.263000000     2.226000000
H    -4.442000000     3.848000000     1.384000000
H    -3.308000000     4.205000000     2.320000000
O    -1.694000000    -4.729000000     1.725000000
H    -0.738000000    -4.760000000     1.737000000
H    -1.908000000    -3.824000000     1.952000000
O     4.526000000    -1.287000000    -0.069000000
H     4.025000000    -1.719000000     0.622000000
H     4.995000000    -1.999000000    -0.505000000
O    -1.257000000     2.411000000     7.184000000
H    -0.515000000     1.926000000     6.822000000
H    -0.968000000     3.323000000     7.189000000
O     1.536000000    -4.224000000    -3.095000000
H     0.791000000    -3.857000000    -3.571000000
H     2.299000000    -3.978000000    -3.618000000
O     2.132000000    -4.875000000    -6.258000000
H     1.795000000    -5.763000000    -6.142000000
H     1.363000000    -4.313000000    -6.164000000
O    -0.958000000    -1.834000000     5.104000000
H    -0.716000000    -2.760000000     5.127000000
H    -1.914000000    -1.835000000     5.155000000
O     2.692000000    -1.584000000    -5.636000000
H     3.069000000    -1.196000000    -6.426000000
H     1.749000000    -1.446000000    -5.729000000
O    -2.316000000    -1.962000000    -6.727000000
H    -3.057000000    -2.446000000    -6.360000000
H    -2.316000000    -1.130000000    -6.254000000
O    -4.921000000     0.186000000     3.084000000
H    -4.204000000     0.358000000     3.694000000
H    -5.423000000    -0.517000000     3.496000000
O    -2.597000000     1.079000000     4.255000000
H    -1.854000000     1.418000000     3.755000000
H    -2.199000000     0.606000000     4.986000000
O     4.142000000    -1.477000000    -3.535000000
H     4.043000000    -2.429000000    -3.496000000
H     3.720000000    -1.226000000    -4.357000000
O    -1.776000000    -2.180000000     1.898000000
H    -2.140000000    -1.439000000     2.382000000
H    -1.296000000    -1.780000000     1.172000000
O     6.866000000     1.713000000     2.512000000
H     5.974000000     1.604000000     2.841000000
H     7.047000000     0.904000000     2.034000000
O    -5.333000000     1.684000000    -1.928000000
H    -6.187000000     1.907000000    -2.298000000
H    -5.429000000     1.844000000    -0.989000000
O     2.658000000     5.828000000     2.605000000
H     1.756000000     5.799000000     2.924000000
H     2.575000000     5.997000000     1.667000000
O     3.276000000     3.236000000     6.317000000
H     3.750000000     3.819000000     6.910000000
H     3.617000000     3.449000000     5.448000000
O    -1.072000000     1.984000000    -3.888000000
H    -0.966000000     1.757000000    -2.964000000
H    -0.435000000     2.682000000    -4.039000000
O    -2.550000000     0.499000000    -5.629000000
H    -3.336000000     0.499000000    -5.082000000
H    -1.901000000     0.979000000    -5.114000000
O     6.836000000    -0.939000000     1.433000000
H     7.560000000    -1.183000000     0.856000000
H     6.067000000    -0.933000000     0.863000000
O    -5.035000000    -4.062000000    -4.816000000
H    -5.105000000    -3.527000000    -4.025000000
H    -5.777000000    -3.789000000    -5.356000000
O    -1.058000000    -6.364000000    -4.258000000
H    -1.918000000    -6.451000000    -4.669000000
H    -1.249000000    -6.239000000    -3.328000000
O     4.218000000     1.334000000     3.347000000
H     3.264000000     1.409000000     3.349000000
H     4.524000000     2.143000000     3.757000000
O    -4.384000000    -2.100000000    -2.317000000
H    -4.150000000    -2.988000000    -2.048000000
H    -4.503000000    -1.624000000    -1.494000000
O    -1.554000000     4.368000000     3.336000000
H    -1.724000000     4.413000000     4.277000000
H    -1.078000000     3.546000000     3.217000000
O    -5.078000000    -1.381000000     0.298000000
H    -4.873000000    -0.890000000     1.093000000
H    -5.875000000    -0.971000000    -0.038000000
O     5.481000000    -1.001000000     3.709000000
H     6.075000000    -1.122000000     2.968000000
H     5.076000000    -0.148000000     3.553000000
O     1.086000000     1.584000000     5.945000000
H     1.009000000     1.687000000     4.996000000
H     1.794000000     2.179000000     6.194000000
O     3.167000000     3.372000000     0.210000000
H     3.542000000     2.855000000     0.923000000
H     2.304000000     3.632000000     0.531000000
O    -4.621000000     0.131000000    -3.929000000
H    -4.876000000     0.760000000    -3.255000000
H    -4.674000000    -0.720000000    -3.494000000
O    -1.025000000     3.709000000    -1.081000000
H    -1.975000000     3.772000000    -0.981000000
H    -0.803000000     4.404000000    -1.701000000
O     4.456000000     4.060000000     3.972000000
H     5.230000000     4.621000000     3.925000000
H     3.757000000     4.584000000     3.580000000
O     0.887000000    -4.398000000     0.976000000
H     0.759000000    -4.359000000     0.028000000
H     1.513000000    -3.699000000     1.163000000
O     3.362000000    -2.736000000     1.984000000
H     3.603000000    -3.568000000     2.392000000
H     2.752000000    -2.335000000     2.602000000
O     0.516000000     4.266000000     0.963000000
H     0.085000000     3.844000000     1.706000000
H    -0.076000000     4.118000000     0.226000000
O    -0.025000000     6.555000000     3.071000000
H    -0.234000000     6.990000000     2.244000000
H    -0.589000000     5.782000000     3.084000000
O    -4.132000000    -3.900000000    -0.164000000
H    -4.438000000    -3.033000000     0.106000000
H    -3.194000000    -3.893000000     0.027000000
O     3.548000000     0.114000000     7.346000000
H     3.279000000     0.967000000     7.005000000
H     3.546000000    -0.462000000     6.582000000
O     0.325000000    -0.644000000     7.244000000
H    -0.039000000    -1.241000000     6.590000000
H     0.570000000     0.136000000     6.746000000
O     4.135000000     0.550000000    -1.874000000
H     4.091000000    -0.139000000    -2.537000000
H     4.281000000     0.083000000    -1.052000000
O    -1.512000000     4.804000000     6.191000000
H    -2.336000000     5.289000000     6.226000000
H    -0.835000000     5.478000000     6.244000000
O    -5.768000000     1.803000000     0.814000000
H    -6.704000000     1.913000000     0.986000000
H    -5.484000000     1.147000000     1.450000000
O     2.131000000    -1.318000000     4.171000000
H     1.990000000    -0.491000000     3.709000000
H     1.280000000    -1.526000000     4.556000000
O    -3.626000000     4.569000000    -1.088000000
H    -4.319000000     5.203000000    -0.906000000
H    -3.924000000     4.107000000    -1.872000000
O    -4.266000000     2.134000000     6.527000000
H    -3.466000000     2.372000000     6.995000000
H    -3.972000000     1.925000000     5.640000000
O     1.412000000     1.580000000    -2.440000000
H     1.136000000     1.434000000    -1.535000000
H     1.725000000     0.725000000    -2.735000000
