144
-2808.53982
O    -1.986000000     5.077000000     6.154000000
H    -1.488000000     4.421000000     6.642000000
H    -1.534000000     5.143000000     5.312000000
O    -2.795000000    -3.359000000    -4.256000000
H    -3.318000000    -3.433000000    -5.055000000
H    -3.103000000    -2.554000000    -3.841000000
O    -6.394000000    -0.022000000    -0.554000000
H    -6.727000000     0.621000000     0.072000000
H    -5.610000000     0.387000000    -0.922000000
O    -5.424000000     4.914000000     2.097000000
H    -5.181000000     3.992000000     2.179000000
H    -5.038000000     5.191000000     1.266000000
O    -4.047000000     1.455000000    -6.001000000
H    -3.523000000     1.816000000    -5.286000000
H    -3.593000000     1.736000000    -6.796000000
O     0.510000000    -0.186000000     8.881000000
H     0.209000000    -1.078000000     8.707000000
H     0.687000000     0.180000000     8.014000000
O    -0.404000000    -0.430000000     5.827000000
H     0.017000000     0.055000000     5.117000000
H    -1.256000000    -0.007000000     5.934000000
O    -4.847000000     2.465000000     2.506000000
H    -5.418000000     1.732000000     2.737000000
H    -3.993000000     2.225000000     2.864000000
O     0.564000000    -2.755000000    -5.084000000
H     0.746000000    -2.915000000    -4.158000000
H     0.460000000    -3.628000000    -5.462000000
O     4.774000000     1.951000000    -0.166000000
H     5.541000000     2.379000000     0.215000000
H     4.710000000     1.117000000     0.298000000
O    -1.144000000     5.075000000     3.546000000
H    -1.235000000     4.679000000     2.680000000
H    -0.401000000     4.620000000     3.941000000
O     4.656000000    -0.840000000     6.627000000
H     4.200000000    -0.163000000     6.127000000
H     4.084000000    -1.605000000     6.570000000
O    -0.006000000    -5.702000000    -5.109000000
H    -0.386000000    -5.570000000    -4.241000000
H     0.939000000    -5.719000000    -4.957000000
O    -4.208000000     4.970000000    -0.596000000
H    -4.939000000     4.427000000    -0.892000000
H    -3.680000000     5.109000000    -1.383000000
O     2.269000000    -3.109000000    -2.856000000
H     2.848000000    -2.446000000    -3.232000000
H     2.755000000    -3.455000000    -2.108000000
O     5.778000000     2.397000000     6.357000000
H     5.068000000     1.895000000     5.959000000
H     5.447000000     2.636000000     7.223000000
O     1.673000000     2.763000000    -4.205000000
H     1.892000000     2.567000000    -3.294000000
H     2.491000000     2.627000000    -4.683000000
O     6.204000000    -0.926000000     4.090000000
H     5.880000000    -0.938000000     4.991000000
H     6.307000000    -1.850000000     3.860000000
O    -1.157000000    -0.985000000    -6.394000000
H    -0.430000000    -0.373000000    -6.278000000
H    -0.820000000    -1.822000000    -6.074000000
O     3.259000000    -5.804000000     2.817000000
H     3.598000000    -5.083000000     2.287000000
H     3.698000000    -5.708000000     3.662000000
O    -0.971000000     2.787000000    -5.229000000
H    -0.061000000     2.682000000    -4.952000000
H    -1.037000000     2.274000000    -6.034000000
O     3.770000000    -3.280000000    -5.321000000
H     3.032000000    -2.691000000    -5.480000000
H     3.378000000    -4.047000000    -4.902000000
O    -1.349000000    -4.827000000    -2.556000000
H    -2.036000000    -4.896000000    -1.893000000
H    -1.698000000    -4.208000000    -3.198000000
O     4.453000000     3.318000000     3.788000000
H     4.708000000     3.653000000     4.648000000
H     3.527000000     3.097000000     3.881000000
O    -0.617000000    -3.253000000     1.622000000
H     0.021000000    -3.840000000     1.216000000
H    -0.532000000    -2.433000000     1.136000000
O     4.523000000     0.069000000     1.714000000
H     3.614000000     0.209000000     1.980000000
H     5.024000000     0.137000000     2.526000000
O    -2.406000000     2.204000000     3.914000000
H    -2.373000000     3.146000000     3.747000000
H    -1.571000000     1.873000000     3.583000000
O    -3.233000000     0.846000000     6.413000000
H    -3.162000000     1.457000000     5.680000000
H    -4.063000000     0.392000000     6.267000000
O     3.157000000     1.556000000     5.715000000
H     2.839000000     1.141000000     4.914000000
H     2.369000000     1.705000000     6.237000000
O     1.070000000    -2.845000000     5.437000000
H     1.695000000    -2.727000000     4.722000000
H     0.685000000    -1.978000000     5.564000000
O     1.165000000    -5.130000000    -0.440000000
H     0.830000000    -4.660000000    -1.204000000
H     2.066000000    -4.820000000    -0.346000000
O    -4.477000000     1.150000000    -2.127000000
H    -3.838000000     1.618000000    -1.588000000
H    -4.856000000     1.826000000    -2.689000000
O    -1.233000000     1.527000000    -7.506000000
H    -0.948000000     1.648000000    -8.412000000
H    -1.241000000     0.577000000    -7.383000000
O     2.381000000     2.005000000    -1.736000000
H     2.378000000     1.053000000    -1.835000000
H     3.234000000     2.204000000    -1.350000000
O     2.963000000    -0.410000000    -6.072000000
H     3.791000000    -0.885000000    -6.146000000
H     3.181000000     0.490000000    -6.316000000
O     0.566000000     3.576000000     4.862000000
H     0.619000000     2.753000000     4.376000000
H     0.781000000     3.336000000     5.763000000
O    -4.120000000    -1.069000000    -6.988000000
H    -3.186000000    -0.873000000    -7.053000000
H    -4.514000000    -0.257000000    -6.671000000
O    -2.010000000     3.769000000     1.186000000
H    -1.409000000     3.583000000     0.464000000
H    -2.721000000     4.267000000     0.783000000
O    -4.845000000    -1.147000000    -3.487000000
H    -5.802000000    -1.117000000    -3.467000000
H    -4.571000000    -0.394000000    -2.965000000
O     3.906000000    -4.365000000    -0.898000000
H     4.698000000    -3.962000000    -0.542000000
H     4.199000000    -5.213000000    -1.232000000
O    -2.507000000    -2.595000000     6.066000000
H    -2.493000000    -2.963000000     6.949000000
H    -1.690000000    -2.102000000     5.999000000
O    -2.191000000     2.760000000    -2.712000000
H    -1.891000000     2.825000000    -3.619000000
H    -1.433000000     3.026000000    -2.190000000
O    -4.120000000    -3.095000000     0.636000000
H    -4.536000000    -2.644000000     1.371000000
H    -3.182000000    -3.028000000     0.815000000
O     3.236000000    -2.226000000     4.072000000
H     3.114000000    -1.460000000     3.511000000
H     4.052000000    -2.621000000     3.764000000
O     1.046000000     2.156000000     7.329000000
H     0.209000000     2.409000000     7.720000000
H     1.673000000     2.210000000     8.049000000
O     3.529000000     4.384000000     1.320000000
H     3.872000000     4.206000000     2.196000000
H     3.956000000     3.736000000     0.759000000
O     0.125000000     3.953000000    -0.686000000
H     0.761000000     3.261000000    -0.869000000
H     0.215000000     4.561000000    -1.421000000
O     3.483000000    -0.448000000    -3.363000000
H     4.427000000    -0.607000000    -3.381000000
H     3.172000000    -0.759000000    -4.213000000
