144
-2781.64236
O     5.532000000     0.821000000    -1.296000000
H     4.955000000     0.099000000    -1.544000000
H     5.732000000     0.661000000    -0.374000000
O     3.263000000     2.843000000    -5.932000000
H     4.146000000     2.486000000    -5.839000000
H     2.776000000     2.160000000    -6.394000000
O    -5.525000000     0.587000000    -1.655000000
H    -5.606000000     0.871000000    -0.744000000
H    -4.583000000     0.599000000    -1.826000000
O    -1.515000000    -0.599000000    -8.184000000
H    -0.789000000    -0.550000000    -8.806000000
H    -1.333000000     0.092000000    -7.547000000
O    -0.893000000    -0.630000000     6.471000000
H    -0.821000000    -0.183000000     5.628000000
H    -0.366000000    -0.098000000     7.069000000
O    -1.254000000    -3.302000000     5.351000000
H    -1.259000000    -2.356000000     5.492000000
H    -0.351000000    -3.503000000     5.104000000
O     4.688000000     3.597000000    -2.140000000
H     3.737000000     3.659000000    -2.049000000
H     4.914000000     2.761000000    -1.733000000
O     2.602000000    -2.271000000    -3.999000000
H     2.142000000    -3.102000000    -3.886000000
H     3.258000000    -2.263000000    -3.302000000
O    -5.613000000     1.076000000     1.005000000
H    -4.904000000     0.442000000     1.107000000
H    -6.020000000     1.121000000     1.870000000
O    -3.644000000    -2.736000000    -4.645000000
H    -2.769000000    -2.856000000    -5.014000000
H    -4.062000000    -3.592000000    -4.736000000
O     4.123000000    -3.658000000     3.353000000
H     4.405000000    -4.340000000     2.744000000
H     4.797000000    -3.649000000     4.032000000
O     0.804000000    -2.378000000     8.510000000
H     1.113000000    -1.741000000     7.866000000
H     0.535000000    -1.849000000     9.261000000
O    -3.448000000     2.896000000    -3.914000000
H    -2.720000000     2.317000000    -4.139000000
H    -4.209000000     2.500000000    -4.337000000
O    -1.293000000    -3.267000000    -5.782000000
H    -0.580000000    -3.887000000    -5.630000000
H    -1.762000000    -3.622000000    -6.537000000
O     4.217000000     0.683000000     4.863000000
H     3.765000000     1.497000000     4.640000000
H     3.624000000     0.238000000     5.468000000
O     4.481000000    -1.065000000     1.742000000
H     4.442000000    -1.161000000     2.694000000
H     4.011000000    -1.827000000     1.405000000
O     0.724000000    -1.066000000    -5.585000000
H     0.064000000    -1.715000000    -5.827000000
H     1.391000000    -1.567000000    -5.115000000
O    -3.046000000     2.406000000     5.992000000
H    -3.267000000     3.216000000     5.533000000
H    -3.052000000     2.645000000     6.918000000
O     2.167000000    -5.221000000    -0.271000000
H     2.578000000    -5.974000000    -0.696000000
H     1.300000000    -5.535000000    -0.013000000
O     1.823000000     3.715000000     7.136000000
H     1.660000000     4.283000000     6.383000000
H     1.343000000     2.911000000     6.938000000
O     3.751000000    -3.204000000     0.164000000
H     3.062000000    -3.864000000     0.081000000
H     4.548000000    -3.655000000    -0.113000000
O    -3.067000000     3.585000000    -7.112000000
H    -2.374000000     3.054000000    -6.719000000
H    -3.797000000     2.977000000    -7.227000000
O     3.465000000     3.020000000     3.567000000
H     3.655000000     2.572000000     2.743000000
H     2.523000000     3.187000000     3.537000000
O    -1.778000000    -3.029000000    -0.207000000
H    -2.487000000    -3.191000000    -0.829000000
H    -2.027000000    -2.216000000     0.233000000
O    -0.502000000     4.683000000     2.367000000
H    -0.378000000     3.963000000     1.748000000
H     0.313000000     5.183000000     2.318000000
O    -3.476000000    -0.079000000     4.835000000
H    -3.124000000     0.690000000     5.283000000
H    -2.718000000    -0.474000000     4.404000000
O    -6.045000000    -0.600000000     5.045000000
H    -6.282000000     0.258000000     4.694000000
H    -5.101000000    -0.547000000     5.192000000
O     2.177000000    -0.350000000     6.394000000
H     1.684000000     0.354000000     6.816000000
H     1.611000000    -0.644000000     5.680000000
O    -0.680000000    -5.058000000     2.706000000
H    -0.074000000    -4.551000000     3.245000000
H    -0.310000000    -5.016000000     1.824000000
O    -0.534000000    -5.579000000     0.044000000
H    -0.259000000    -5.819000000    -0.840000000
H    -0.695000000    -4.637000000    -0.003000000
O     2.928000000     1.185000000     1.590000000
H     3.695000000     0.611000000     1.575000000
H     2.182000000     0.586000000     1.594000000
O    -2.912000000     0.192000000    -4.868000000
H    -2.993000000    -0.026000000    -5.796000000
H    -2.581000000    -0.609000000    -4.462000000
O     0.783000000     3.844000000    -6.608000000
H     1.737000000     3.883000000    -6.539000000
H     0.599000000     4.075000000    -7.519000000
O     2.624000000    -6.518000000     2.182000000
H     2.475000000    -5.737000000     1.648000000
H     2.234000000    -6.306000000     3.030000000
O     2.051000000     0.731000000    -7.260000000
H     2.323000000     0.363000000    -8.100000000
H     1.691000000    -0.014000000    -6.778000000
O     2.316000000     2.784000000    -0.962000000
H     1.569000000     2.402000000    -0.501000000
H     3.060000000     2.629000000    -0.380000000
O    -3.595000000     6.616000000    -0.748000000
H    -2.968000000     5.936000000    -0.993000000
H    -3.882000000     6.990000000    -1.582000000
O     0.532000000     2.194000000     4.792000000
H    -0.252000000     2.712000000     4.974000000
H     0.203000000     1.398000000     4.375000000
O    -2.252000000     4.245000000    -1.765000000
H    -1.426000000     3.958000000    -2.156000000
H    -2.917000000     4.013000000    -2.413000000
O    -3.806000000    -3.580000000    -1.913000000
H    -3.338000000    -3.229000000    -2.671000000
H    -4.699000000    -3.247000000    -2.008000000
O     4.702000000    -2.107000000    -2.082000000
H     4.313000000    -2.358000000    -1.244000000
H     5.646000000    -2.125000000    -1.923000000
O    -3.137000000    -0.933000000     8.092000000
H    -2.415000000    -0.899000000     7.465000000
H    -3.653000000    -0.148000000     7.906000000
O    -4.484000000    -1.391000000     2.346000000
H    -4.072000000    -2.217000000     2.600000000
H    -4.804000000    -1.020000000     3.168000000
O    -0.956000000     1.910000000    -6.213000000
H    -0.264000000     2.571000000    -6.230000000
H    -0.514000000     1.106000000    -5.940000000
O     1.294000000    -3.392000000     4.028000000
H     1.102000000    -2.471000000     3.854000000
H     2.209000000    -3.500000000     3.768000000
O     0.607000000     5.440000000    -0.622000000
H     0.340000000     4.582000000    -0.951000000
H    -0.170000000     5.989000000    -0.725000000
O     0.734000000     4.040000000    -3.041000000
H     1.245000000     3.476000000    -2.461000000
H     1.342000000     4.278000000    -3.741000000
O     4.624000000    -1.164000000    -5.611000000
H     4.627000000    -2.121000000    -5.576000000
H     3.783000000    -0.913000000    -5.228000000
