144
-2827.66873
O    -3.746000000     2.172000000    -0.403000000
H    -3.642000000     1.886000000    -1.311000000
H    -4.642000000     2.504000000    -0.357000000
O     0.100000000    -5.377000000     5.744000000
H     0.539000000    -5.965000000     5.129000000
H     0.594000000    -4.559000000     5.688000000
O    -2.168000000    -3.564000000     4.075000000
H    -1.599000000    -2.973000000     3.582000000
H    -1.624000000    -3.871000000     4.800000000
O    -1.500000000     4.439000000     0.069000000
H    -2.107000000     3.842000000    -0.369000000
H    -1.996000000     4.780000000     0.814000000
O     3.064000000     4.207000000    -3.700000000
H     2.359000000     4.105000000    -3.061000000
H     2.618000000     4.458000000    -4.510000000
O    -3.959000000    -4.616000000    -0.482000000
H    -4.221000000    -5.428000000    -0.915000000
H    -3.619000000    -4.897000000     0.368000000
O     5.252000000     3.160000000    -5.150000000
H     5.037000000     2.232000000    -5.246000000
H     4.500000000     3.534000000    -4.692000000
O    -3.069000000    -5.414000000     2.188000000
H    -3.281000000    -4.938000000     2.990000000
H    -2.112000000    -5.433000000     2.168000000
O     2.944000000    -3.190000000     2.755000000
H     2.590000000    -2.303000000     2.690000000
H     3.229000000    -3.400000000     1.866000000
O     0.986000000    -2.533000000    -5.146000000
H     1.531000000    -1.910000000    -4.666000000
H     0.649000000    -2.033000000    -5.890000000
O    -2.599000000     1.972000000     4.500000000
H    -2.081000000     1.271000000     4.895000000
H    -2.587000000     1.780000000     3.562000000
O    -0.377000000    -1.534000000    -7.199000000
H    -0.692000000    -2.363000000    -7.561000000
H    -1.068000000    -0.905000000    -7.405000000
O     0.325000000    -4.415000000    -3.221000000
H     0.501000000    -5.332000000    -3.431000000
H     0.425000000    -3.955000000    -4.054000000
O     1.540000000    -6.190000000     3.557000000
H     0.916000000    -5.537000000     3.239000000
H     2.359000000    -5.977000000     3.110000000
O    -4.536000000     2.645000000    -4.990000000
H    -4.701000000     1.766000000    -4.648000000
H    -3.591000000     2.669000000    -5.142000000
O    -3.288000000    -2.872000000    -2.939000000
H    -2.885000000    -3.283000000    -2.174000000
H    -3.554000000    -2.005000000    -2.634000000
O    -3.809000000     0.062000000    -4.246000000
H    -3.876000000    -0.514000000    -5.008000000
H    -4.399000000    -0.326000000    -3.600000000
O    -5.467000000    -0.685000000    -2.244000000
H    -6.270000000    -0.169000000    -2.174000000
H    -5.371000000    -1.097000000    -1.385000000
O     5.584000000    -2.013000000     5.506000000
H     4.773000000    -1.506000000     5.527000000
H     5.473000000    -2.611000000     4.767000000
O     3.357000000     1.689000000     2.981000000
H     3.681000000     1.543000000     2.092000000
H     4.132000000     1.953000000     3.477000000
O     3.166000000    -4.266000000     0.064000000
H     2.316000000    -4.706000000     0.067000000
H     3.247000000    -3.909000000    -0.820000000
O     0.209000000     1.178000000     5.298000000
H     0.572000000     1.906000000     4.794000000
H     0.363000000     0.408000000     4.751000000
O     0.659000000    -5.140000000    -0.454000000
H     0.695000000    -4.829000000    -1.358000000
H     0.353000000    -6.044000000    -0.523000000
O     2.793000000    -0.508000000    -1.126000000
H     1.975000000    -0.203000000    -0.733000000
H     3.476000000    -0.020000000    -0.666000000
O    -3.511000000    -1.735000000     2.336000000
H    -3.060000000    -2.328000000     2.937000000
H    -2.868000000    -1.050000000     2.149000000
O     1.291000000     3.310000000     3.975000000
H     1.081000000     3.879000000     3.234000000
H     2.217000000     3.096000000     3.857000000
O     3.430000000    -0.472000000     5.279000000
H     3.706000000     0.305000000     4.794000000
H     2.581000000    -0.702000000     4.901000000
O     4.472000000     1.394000000     0.460000000
H     5.052000000     1.979000000    -0.028000000
H     5.060000000     0.762000000     0.872000000
O     5.368000000    -4.062000000     3.695000000
H     5.785000000    -4.551000000     2.986000000
H     4.508000000    -3.825000000     3.348000000
O    -0.050000000    -4.601000000     2.091000000
H    -0.207000000    -3.662000000     2.191000000
H     0.330000000    -4.688000000     1.217000000
O     1.705000000     6.713000000    -2.145000000
H     2.017000000     6.874000000    -3.035000000
H     1.165000000     5.927000000    -2.218000000
O     4.944000000     3.488000000    -1.960000000
H     4.967000000     4.214000000    -1.336000000
H     4.351000000     3.785000000    -2.650000000
O     3.222000000     1.168000000    -6.010000000
H     2.805000000     0.573000000    -6.633000000
H     3.364000000     0.636000000    -5.228000000
O     2.895000000    -3.169000000    -2.378000000
H     2.675000000    -2.439000000    -1.799000000
H     2.112000000    -3.292000000    -2.915000000
O     0.344000000    -0.348000000     7.456000000
H     0.363000000     0.188000000     6.663000000
H     1.020000000     0.032000000     8.017000000
O     2.785000000     5.835000000     0.165000000
H     1.947000000     5.443000000     0.412000000
H     2.567000000     6.437000000    -0.546000000
O     0.401000000     4.405000000    -2.104000000
H    -0.197000000     4.089000000    -2.781000000
H    -0.114000000     4.379000000    -1.298000000
O     0.419000000     5.099000000     2.048000000
H     0.079000000     5.992000000     2.110000000
H    -0.198000000     4.647000000     1.473000000
O    -5.031000000    -2.164000000     0.026000000
H    -4.676000000    -3.014000000    -0.235000000
H    -4.595000000    -1.967000000     0.855000000
O    -5.562000000    -0.368000000     4.109000000
H    -4.677000000    -0.583000000     3.814000000
H    -5.441000000    -0.014000000     4.990000000
O     1.366000000    -3.201000000     5.000000000
H     1.925000000    -3.375000000     4.243000000
H     0.797000000    -2.484000000     4.719000000
O     0.737000000     4.923000000     6.104000000
H     1.099000000     4.275000000     5.499000000
H     1.240000000     5.719000000     5.931000000
O    -1.714000000     2.575000000    -5.104000000
H    -1.683000000     2.675000000    -6.056000000
H    -1.702000000     1.628000000    -4.962000000
O    -2.530000000    -2.591000000     7.015000000
H    -3.305000000    -2.049000000     6.867000000
H    -1.793000000    -2.022000000     6.792000000
O     2.963000000    -3.859000000     7.314000000
H     2.502000000    -3.452000000     6.581000000
H     3.187000000    -4.735000000     7.000000000
O    -2.663000000     1.125000000     2.027000000
H    -1.720000000     1.247000000     1.913000000
H    -3.058000000     1.661000000     1.339000000
O    -2.230000000     3.844000000    -2.868000000
H    -2.850000000     4.525000000    -3.131000000
H    -2.125000000     3.301000000    -3.649000000
O     2.787000000    -0.727000000    -3.837000000
H     2.710000000    -0.697000000    -2.884000000
H     3.710000000    -0.921000000    -3.997000000
