144
-2813.24419
O    -1.186000000    -2.369000000     3.203000000
H    -0.246000000    -2.262000000     3.063000000
H    -1.508000000    -2.752000000     2.387000000
O    -4.568000000     2.358000000    -4.691000000
H    -4.385000000     1.545000000    -4.220000000
H    -4.082000000     2.273000000    -5.512000000
O     6.395000000     2.379000000     4.804000000
H     6.077000000     1.608000000     5.274000000
H     5.826000000     2.442000000     4.036000000
O    -7.641000000    -3.649000000     0.548000000
H    -7.364000000    -2.853000000     1.002000000
H    -7.955000000    -3.342000000    -0.303000000
O    -7.562000000     0.743000000    -1.566000000
H    -7.162000000     0.146000000    -0.934000000
H    -6.830000000     1.056000000    -2.098000000
O    -3.134000000    -2.376000000     5.229000000
H    -2.560000000    -2.652000000     4.514000000
H    -3.235000000    -3.158000000     5.772000000
O     7.160000000     4.626000000     2.748000000
H     6.325000000     4.295000000     3.081000000
H     6.950000000     5.487000000     2.388000000
O     1.248000000    -1.334000000     2.703000000
H     1.525000000    -0.420000000     2.642000000
H     2.065000000    -1.829000000     2.759000000
O    -3.916000000     0.019000000    -3.386000000
H    -3.661000000    -0.745000000    -2.869000000
H    -3.607000000    -0.177000000    -4.271000000
O    -2.293000000     3.046000000     2.942000000
H    -2.013000000     3.031000000     3.857000000
H    -2.767000000     2.222000000     2.823000000
O     3.911000000    -4.297000000    -0.176000000
H     3.321000000    -4.990000000     0.120000000
H     4.769000000    -4.552000000     0.163000000
O    -2.753000000    -1.337000000    -5.568000000
H    -2.044000000    -1.966000000    -5.433000000
H    -3.550000000    -1.829000000    -5.372000000
O     3.855000000    -2.225000000     1.555000000
H     3.438000000    -2.878000000     0.993000000
H     3.936000000    -1.449000000     1.001000000
O     5.154000000    -2.468000000    -2.194000000
H     5.702000000    -2.182000000    -1.463000000
H     4.324000000    -2.716000000    -1.788000000
O     7.445000000     3.361000000    -0.070000000
H     7.361000000     2.500000000    -0.479000000
H     7.667000000     3.172000000     0.842000000
O    -0.480000000     3.303000000     4.909000000
H    -0.358000000     2.941000000     5.787000000
H    -0.590000000     4.243000000     5.050000000
O     2.884000000     0.886000000     3.519000000
H     2.676000000     1.747000000     3.883000000
H     3.059000000     1.054000000     2.593000000
O     2.464000000    -2.236000000    -4.520000000
H     2.536000000    -1.293000000    -4.672000000
H     3.262000000    -2.602000000    -4.900000000
O     3.561000000     0.126000000    -4.532000000
H     4.075000000     0.222000000    -3.730000000
H     2.960000000     0.871000000    -4.521000000
O    -0.733000000    -6.330000000    -1.287000000
H     0.074000000    -6.111000000    -1.753000000
H    -0.941000000    -7.220000000    -1.571000000
O     4.701000000     3.675000000    -0.828000000
H     5.622000000     3.623000000    -0.575000000
H     4.257000000     3.055000000    -0.249000000
O     6.614000000     2.349000000    -3.573000000
H     6.092000000     2.502000000    -4.360000000
H     6.073000000     1.771000000    -3.035000000
O     5.352000000     0.491000000    -2.136000000
H     6.031000000    -0.086000000    -1.785000000
H     4.739000000     0.607000000    -1.410000000
O     0.302000000    -5.081000000    -4.985000000
H     0.760000000    -5.333000000    -5.786000000
H     0.983000000    -4.702000000    -4.429000000
O     2.069000000    -5.311000000    -2.377000000
H     2.840000000    -4.824000000    -2.086000000
H     2.352000000    -6.226000000    -2.383000000
O    -3.162000000    -4.994000000    -1.065000000
H    -2.310000000    -5.378000000    -1.270000000
H    -3.341000000    -4.404000000    -1.797000000
O     3.094000000    -3.473000000     3.826000000
H     3.410000000    -3.151000000     2.981000000
H     3.553000000    -4.303000000     3.953000000
O     1.909000000     3.643000000     3.740000000
H     1.036000000     3.669000000     4.130000000
H     1.784000000     3.972000000     2.850000000
O     7.373000000    -1.053000000    -1.244000000
H     7.322000000    -0.741000000    -0.341000000
H     8.287000000    -1.317000000    -1.355000000
O     6.029000000     1.382000000     1.143000000
H     5.343000000     0.859000000     0.728000000
H     5.579000000     2.170000000     1.447000000
O     0.687000000     4.968000000    -1.714000000
H     0.409000000     5.614000000    -2.364000000
H    -0.053000000     4.364000000    -1.646000000
O    -5.826000000    -0.755000000    -0.024000000
H    -4.936000000    -0.558000000    -0.317000000
H    -5.916000000    -0.281000000     0.803000000
O     8.265000000     0.129000000     1.738000000
H     8.981000000     0.680000000     2.055000000
H     7.528000000     0.730000000     1.634000000
O    -2.342000000    -3.996000000     1.487000000
H    -2.575000000    -4.254000000     0.595000000
H    -3.083000000    -4.282000000     2.020000000
O    -2.050000000    -4.116000000    -3.576000000
H    -1.167000000    -3.841000000    -3.820000000
H    -2.067000000    -5.056000000    -3.755000000
O     2.764000000     6.700000000    -1.080000000
H     3.388000000     6.303000000    -0.473000000
H     2.179000000     5.983000000    -1.325000000
O     1.523000000     5.765000000     1.346000000
H     0.869000000     6.461000000     1.420000000
H     1.484000000     5.497000000     0.428000000
O     0.066000000     1.107000000    -3.548000000
H    -0.887000000     1.201000000    -3.540000000
H     0.360000000     1.582000000    -2.771000000
O     4.615000000     3.255000000     2.952000000
H     3.957000000     3.044000000     2.290000000
H     4.211000000     3.943000000     3.481000000
O    -0.210000000    -2.183000000    -4.702000000
H    -0.175000000    -1.400000000    -4.153000000
H     0.694000000    -2.498000000    -4.728000000
O    -3.612000000     3.281000000     0.613000000
H    -4.374000000     3.790000000     0.889000000
H    -2.954000000     3.450000000     1.287000000
O    -4.945000000     1.876000000    -1.382000000
H    -4.362000000     1.556000000    -2.071000000
H    -4.375000000     2.383000000    -0.803000000
O    -5.562000000    -4.214000000    -2.971000000
H    -5.452000000    -3.704000000    -3.774000000
H    -5.993000000    -3.613000000    -2.364000000
O     4.965000000    -0.861000000     3.986000000
H     4.205000000    -0.469000000     3.556000000
H     5.382000000    -1.386000000     3.304000000
O    -6.292000000     0.587000000     2.412000000
H    -5.937000000    -0.001000000     3.079000000
H    -6.263000000     1.454000000     2.818000000
O    -2.520000000     0.346000000     4.001000000
H    -2.005000000    -0.120000000     3.343000000
H    -2.369000000    -0.140000000     4.812000000
O    -1.451000000     3.172000000    -1.340000000
H    -1.078000000     2.382000000    -0.949000000
H    -2.173000000     3.409000000    -0.757000000
O     2.162000000     2.612000000    -2.522000000
H     1.814000000     3.083000000    -1.765000000
H     3.095000000     2.827000000    -2.529000000
