144
-2810.66864
O    -1.763000000    -0.183000000     6.060000000
H    -1.507000000     0.622000000     6.510000000
H    -0.982000000    -0.735000000     6.092000000
O    -6.484000000    -2.094000000    -1.971000000
H    -6.185000000    -2.894000000    -2.403000000
H    -5.696000000    -1.555000000    -1.895000000
O     2.260000000     0.125000000     3.950000000
H     1.470000000     0.326000000     4.453000000
H     2.134000000    -0.777000000     3.657000000
O    -8.145000000     1.002000000     2.805000000
H    -7.290000000     0.685000000     2.515000000
H    -8.316000000     0.523000000     3.616000000
O    -4.823000000     2.114000000     2.202000000
H    -4.251000000     2.879000000     2.272000000
H    -4.552000000     1.545000000     2.922000000
O    -2.394000000     3.693000000    -1.495000000
H    -1.601000000     4.206000000    -1.655000000
H    -2.451000000     3.632000000    -0.542000000
O    -5.821000000    -1.014000000     1.717000000
H    -5.201000000    -0.814000000     2.418000000
H    -6.193000000    -1.861000000     1.961000000
O    -2.879000000     1.643000000    -3.754000000
H    -2.711000000     2.063000000    -2.910000000
H    -2.118000000     1.866000000    -4.289000000
O    -1.523000000    -2.778000000    -1.223000000
H    -1.232000000    -2.103000000    -0.610000000
H    -2.354000000    -3.088000000    -0.862000000
O    -3.873000000     0.139000000     4.434000000
H    -4.524000000     0.002000000     5.123000000
H    -3.038000000     0.184000000     4.900000000
O     4.580000000    -2.584000000     1.494000000
H     4.152000000    -3.409000000     1.266000000
H     4.202000000    -1.943000000     0.891000000
O     3.829000000     3.575000000    -3.429000000
H     4.230000000     3.471000000    -2.566000000
H     4.479000000     4.058000000    -3.939000000
O     0.139000000    -2.192000000     6.127000000
H     0.093000000    -2.894000000     6.776000000
H     0.893000000    -2.419000000     5.582000000
O     3.301000000     1.587000000     1.883000000
H     3.079000000     0.825000000     2.418000000
H     2.643000000     2.243000000     2.115000000
O    -1.164000000     4.657000000     0.904000000
H    -0.445000000     4.306000000     1.429000000
H    -0.782000000     5.404000000     0.444000000
O    -4.538000000    -0.257000000    -2.672000000
H    -4.982000000     0.152000000    -1.929000000
H    -4.085000000     0.465000000    -3.107000000
O    -0.276000000     1.859000000    -4.510000000
H     0.439000000     1.362000000    -4.112000000
H     0.159000000     2.479000000    -5.094000000
O     6.276000000    -1.850000000     4.146000000
H     6.234000000    -1.260000000     4.899000000
H     6.011000000    -1.309000000     3.403000000
O     6.221000000    -3.268000000    -4.677000000
H     6.010000000    -2.742000000    -3.905000000
H     5.594000000    -2.981000000    -5.341000000
O    -3.577000000     4.462000000     2.736000000
H    -2.702000000     4.213000000     2.438000000
H    -3.430000000     5.214000000     3.310000000
O    -0.068000000     5.030000000    -2.215000000
H     0.232000000     4.878000000    -3.111000000
H     0.353000000     5.850000000    -1.957000000
O     4.123000000    -3.246000000    -1.637000000
H     4.048000000    -2.527000000    -1.010000000
H     3.680000000    -2.926000000    -2.423000000
O    -3.255000000    -3.938000000     4.952000000
H    -3.042000000    -4.858000000     5.106000000
H    -2.667000000    -3.671000000     4.244000000
O     1.949000000    -2.651000000     3.836000000
H     1.491000000    -3.411000000     3.477000000
H     2.877000000    -2.873000000     3.758000000
O     2.395000000     1.373000000    -4.249000000
H     2.605000000     0.784000000    -3.524000000
H     2.845000000     2.189000000    -4.032000000
O     3.980000000     2.488000000    -0.963000000
H     4.268000000     2.032000000    -0.172000000
H     3.772000000     1.787000000    -1.581000000
O    -0.596000000    -4.932000000    -2.536000000
H    -0.628000000    -4.265000000    -1.850000000
H     0.326000000    -5.186000000    -2.581000000
O    -3.893000000    -3.975000000     0.079000000
H    -4.709000000    -3.889000000    -0.413000000
H    -3.996000000    -4.788000000     0.574000000
O     5.151000000    -1.154000000    -3.122000000
H     4.444000000    -0.668000000    -2.696000000
H     5.926000000    -0.607000000    -2.996000000
O     0.267000000    -4.698000000     3.510000000
H     0.192000000    -5.554000000     3.088000000
H    -0.378000000    -4.153000000     3.061000000
O     8.318000000    -1.728000000    -0.500000000
H     7.724000000    -1.103000000    -0.085000000
H     8.250000000    -2.516000000     0.038000000
O     2.936000000    -4.567000000     0.344000000
H     2.089000000    -4.720000000    -0.075000000
H     3.506000000    -4.277000000    -0.368000000
O    -7.226000000     1.056000000    -2.678000000
H    -8.097000000     1.402000000    -2.482000000
H    -6.746000000     1.138000000    -1.854000000
O     1.823000000     3.460000000    -6.126000000
H     2.065000000     3.672000000    -7.028000000
H     2.604000000     3.042000000    -5.761000000
O    -0.730000000    -0.380000000    -5.971000000
H    -1.153000000    -1.089000000    -5.487000000
H    -0.764000000     0.369000000    -5.377000000
O     7.428000000    -0.038000000    -2.774000000
H     7.720000000     0.700000000    -2.240000000
H     7.632000000    -0.811000000    -2.246000000
O    -5.157000000     1.868000000    -5.184000000
H    -4.312000000     1.945000000    -4.740000000
H    -5.724000000     1.434000000    -4.546000000
O    -4.130000000     4.994000000    -3.451000000
H    -3.786000000     4.508000000    -2.701000000
H    -3.373000000     5.468000000    -3.795000000
O    -2.001000000    -1.685000000    -3.895000000
H    -1.583000000    -2.262000000    -3.255000000
H    -2.553000000    -1.105000000    -3.371000000
O     3.108000000     0.079000000    -6.764000000
H     2.976000000     0.350000000    -5.856000000
H     3.724000000     0.720000000    -7.119000000
O     6.170000000    -0.340000000     0.061000000
H     5.271000000    -0.616000000    -0.118000000
H     6.151000000    -0.033000000     0.967000000
O     6.075000000    -5.289000000    -2.186000000
H     5.677000000    -4.429000000    -2.047000000
H     5.971000000    -5.452000000    -3.124000000
O    -5.963000000     0.832000000    -0.255000000
H    -5.794000000     0.145000000     0.390000000
H    -5.490000000     1.595000000     0.077000000
O     5.791000000     0.669000000     2.916000000
H     5.195000000     1.030000000     2.260000000
H     5.926000000     1.384000000     3.537000000
O    -2.287000000    -3.654000000     2.138000000
H    -2.747000000    -4.430000000     2.458000000
H    -2.625000000    -3.522000000     1.252000000
O     2.041000000     3.955000000     0.499000000
H     2.690000000     3.327000000     0.182000000
H     1.245000000     3.744000000     0.011000000
O     7.370000000    -3.237000000     1.948000000
H     6.522000000    -3.118000000     1.521000000
H     7.199000000    -3.060000000     2.873000000
O     4.539000000     0.453000000     5.589000000
H     4.045000000     0.405000000     4.771000000
H     3.894000000     0.722000000     6.243000000
