144
-2796.45283
O     0.226000000    -2.158000000     7.233000000
H     0.024000000    -1.518000000     6.551000000
H     1.088000000    -1.898000000     7.558000000
O    -6.706000000     0.444000000    -0.463000000
H    -6.298000000     1.233000000    -0.105000000
H    -6.858000000     0.651000000    -1.386000000
O    -0.341000000     0.908000000     6.830000000
H    -1.001000000     0.964000000     7.521000000
H    -0.546000000     1.634000000     6.242000000
O    -1.512000000     3.381000000     5.421000000
H    -0.750000000     3.665000000     4.917000000
H    -1.749000000     4.144000000     5.948000000
O     1.291000000     6.664000000    -2.753000000
H     0.779000000     6.299000000    -2.031000000
H     0.779000000     7.415000000    -3.053000000
O    -5.247000000     2.744000000     0.566000000
H    -6.151000000     2.935000000     0.815000000
H    -4.795000000     2.599000000     1.397000000
O    -1.356000000     4.316000000    -2.470000000
H    -2.248000000     4.027000000    -2.274000000
H    -0.931000000     4.378000000    -1.615000000
O    -4.386000000     2.627000000     3.519000000
H    -5.176000000     2.267000000     3.923000000
H    -4.275000000     3.483000000     3.933000000
O    -1.158000000     5.281000000     3.116000000
H    -1.718000000     5.412000000     2.351000000
H    -1.640000000     4.662000000     3.664000000
O    -4.092000000    -1.638000000     2.392000000
H    -4.979000000    -1.953000000     2.564000000
H    -3.952000000    -1.811000000     1.461000000
O    -3.084000000    -0.914000000     4.644000000
H    -3.418000000    -1.033000000     3.755000000
H    -2.204000000    -1.292000000     4.622000000
O     2.297000000     2.908000000     0.825000000
H     3.161000000     3.200000000     0.534000000
H     2.132000000     2.109000000     0.324000000
O    -1.714000000     4.669000000    -5.291000000
H    -2.014000000     4.479000000    -4.402000000
H    -1.170000000     3.916000000    -5.525000000
O     5.220000000    -0.818000000     0.853000000
H     5.233000000    -0.155000000     1.543000000
H     5.041000000    -1.638000000     1.312000000
O     0.423000000     4.720000000    -0.196000000
H     0.983000000     4.261000000     0.429000000
H    -0.267000000     5.109000000     0.341000000
O    -3.847000000    -1.729000000    -0.741000000
H    -3.661000000    -0.953000000    -1.269000000
H    -3.379000000    -2.438000000    -1.183000000
O     2.956000000    -4.854000000    -6.153000000
H     3.472000000    -4.373000000    -6.800000000
H     3.478000000    -5.633000000    -5.962000000
O     4.392000000    -1.201000000    -2.925000000
H     4.394000000    -0.586000000    -3.658000000
H     3.523000000    -1.601000000    -2.950000000
O     2.021000000    -7.008000000    -3.591000000
H     1.424000000    -6.850000000    -2.859000000
H     2.635000000    -6.274000000    -3.561000000
O     0.818000000     3.029000000    -3.282000000
H     0.031000000     3.403000000    -2.885000000
H     1.040000000     3.634000000    -3.989000000
O     0.799000000    -3.829000000    -4.545000000
H     1.534000000    -3.551000000    -3.999000000
H     1.209000000    -4.232000000    -5.310000000
O     2.807000000    -1.004000000    -5.546000000
H     2.181000000    -1.236000000    -6.232000000
H     2.334000000    -1.162000000    -4.728000000
O    -3.360000000     1.278000000     6.085000000
H    -3.038000000     2.025000000     5.581000000
H    -3.369000000     0.554000000     5.459000000
O     2.103000000    -7.198000000    -0.051000000
H     2.744000000    -6.901000000     0.594000000
H     1.563000000    -6.426000000    -0.224000000
O     3.920000000     2.045000000    -5.509000000
H     3.549000000     2.549000000    -4.785000000
H     3.309000000     2.179000000    -6.233000000
O     0.447000000    -5.578000000    -1.477000000
H     0.765000000    -4.675000000    -1.496000000
H    -0.347000000    -5.541000000    -0.944000000
O     5.100000000    -3.081000000    -5.269000000
H     4.402000000    -3.721000000    -5.409000000
H     4.821000000    -2.310000000    -5.763000000
O     3.535000000    -4.466000000    -2.759000000
H     4.079000000    -3.776000000    -3.137000000
H     2.917000000    -4.003000000    -2.193000000
O     1.570000000    -3.389000000     2.950000000
H     1.281000000    -4.302000000     2.978000000
H     2.095000000    -3.328000000     2.153000000
O    -2.572000000     6.875000000    -2.240000000
H    -2.394000000     5.942000000    -2.125000000
H    -2.229000000     7.078000000    -3.110000000
O     0.031000000     7.267000000     4.434000000
H    -0.221000000     6.433000000     4.040000000
H     0.558000000     7.024000000     5.195000000
O     0.846000000    -0.063000000     4.078000000
H     0.450000000    -0.841000000     4.470000000
H     0.677000000    -0.154000000     3.141000000
O     1.208000000     3.058000000     4.194000000
H     1.033000000     2.127000000     4.062000000
H     1.132000000     3.444000000     3.322000000
O     6.104000000    -5.164000000    -1.870000000
H     5.170000000    -5.103000000    -2.073000000
H     6.280000000    -4.399000000    -1.321000000
O    -3.142000000     0.401000000    -2.310000000
H    -3.444000000     1.291000000    -2.132000000
H    -2.188000000     0.458000000    -2.263000000
O    -0.377000000    -2.295000000     4.532000000
H     0.083000000    -2.717000000     3.806000000
H    -0.697000000    -3.022000000     5.067000000
O    -0.790000000     1.422000000    -4.598000000
H    -0.199000000     1.895000000    -4.012000000
H    -0.621000000     0.498000000    -4.413000000
O     6.617000000    -1.900000000    -1.237000000
H     5.889000000    -1.540000000    -1.742000000
H     6.493000000    -1.550000000    -0.354000000
O    -2.064000000    -2.905000000    -2.544000000
H    -1.763000000    -3.769000000    -2.825000000
H    -1.690000000    -2.301000000    -3.186000000
O    -2.091000000     5.989000000     0.607000000
H    -2.915000000     6.197000000     0.167000000
H    -1.486000000     6.671000000     0.315000000
O     4.296000000    -4.795000000     3.395000000
H     4.158000000    -5.597000000     3.900000000
H     3.647000000    -4.839000000     2.694000000
O     4.696000000    -0.273000000    -7.242000000
H     3.898000000    -0.590000000    -6.819000000
H     5.111000000     0.285000000    -6.583000000
O    -0.481000000    -1.180000000    -4.384000000
H     0.293000000    -1.445000000    -3.887000000
H    -0.517000000    -1.795000000    -5.116000000
O     3.021000000    -3.916000000     0.879000000
H     3.659000000    -4.492000000     0.459000000
H     2.695000000    -3.362000000     0.170000000
O    -3.565000000     3.351000000    -1.561000000
H    -4.094000000     3.177000000    -0.782000000
H    -4.161000000     3.199000000    -2.294000000
O     3.335000000    -0.261000000     4.908000000
H     3.296000000    -0.176000000     5.860000000
H     2.426000000    -0.171000000     4.621000000
O    -2.116000000    -3.919000000     1.623000000
H    -2.661000000    -3.215000000     1.975000000
H    -2.543000000    -4.723000000     1.918000000
O     4.379000000     3.134000000    -1.065000000
H     4.940000000     2.369000000    -1.192000000
H     3.950000000     3.260000000    -1.911000000
