144
-2806.22931
O    -4.057000000    -3.146000000     1.641000000
H    -4.235000000    -3.479000000     2.521000000
H    -3.222000000    -3.546000000     1.399000000
O    -5.136000000     1.464000000     2.780000000
H    -4.935000000     2.038000000     2.042000000
H    -5.199000000     0.590000000     2.394000000
O    -5.490000000    -0.594000000    -3.253000000
H    -5.928000000    -1.159000000    -3.889000000
H    -4.725000000    -1.098000000    -2.973000000
O    -1.621000000    -4.028000000    -2.570000000
H    -1.376000000    -4.319000000    -1.692000000
H    -2.021000000    -3.169000000    -2.435000000
O     0.822000000     5.541000000    -1.157000000
H     1.151000000     5.194000000    -0.327000000
H     1.272000000     5.027000000    -1.827000000
O    -2.903000000     5.274000000     4.601000000
H    -3.208000000     4.373000000     4.499000000
H    -3.152000000     5.512000000     5.494000000
O     1.894000000     1.144000000     4.533000000
H     2.038000000     1.787000000     5.228000000
H     2.571000000     1.336000000     3.885000000
O    -3.794000000     2.602000000     4.850000000
H    -4.256000000     2.111000000     4.171000000
H    -2.893000000     2.283000000     4.806000000
O    -4.368000000     1.345000000    -1.518000000
H    -4.899000000     0.809000000    -2.107000000
H    -3.560000000     1.508000000    -2.005000000
O     1.073000000    -4.737000000     1.822000000
H     1.227000000    -5.632000000     2.125000000
H     1.667000000    -4.631000000     1.079000000
O    -7.000000000     4.102000000     2.277000000
H    -6.164000000     3.760000000     1.959000000
H    -7.651000000     3.738000000     1.676000000
O     0.308000000     4.519000000     3.565000000
H     0.417000000     5.470000000     3.534000000
H     0.178000000     4.323000000     4.492000000
O     2.246000000    -1.063000000     6.169000000
H     2.204000000    -1.673000000     5.433000000
H     2.007000000    -0.216000000     5.793000000
O    -1.294000000    -5.271000000    -0.080000000
H    -0.525000000    -5.068000000     0.452000000
H    -1.907000000    -5.678000000     0.531000000
O    -1.358000000     1.656000000     4.222000000
H    -0.642000000     2.247000000     3.988000000
H    -1.025000000     0.783000000     4.017000000
O     2.152000000    -8.058000000    -1.731000000
H     2.162000000    -7.101000000    -1.711000000
H     2.852000000    -8.318000000    -1.132000000
O     3.424000000     2.303000000     2.451000000
H     4.071000000     2.322000000     1.746000000
H     3.641000000     3.059000000     2.996000000
O     5.845000000    -2.698000000    -4.674000000
H     5.483000000    -2.752000000    -5.558000000
H     5.099000000    -2.866000000    -4.099000000
O    -3.961000000    -3.059000000    -4.453000000
H    -3.168000000    -2.526000000    -4.514000000
H    -3.742000000    -3.868000000    -4.915000000
O     0.684000000    -4.226000000    -3.708000000
H    -0.164000000    -4.320000000    -3.274000000
H     1.266000000    -3.889000000    -3.027000000
O    -2.348000000     1.954000000    -3.541000000
H    -3.033000000     2.296000000    -4.116000000
H    -1.552000000     2.406000000    -3.821000000
O    -1.267000000     7.243000000     3.070000000
H    -1.639000000     6.458000000     3.473000000
H    -0.626000000     7.558000000     3.708000000
O    -3.904000000     5.652000000     0.090000000
H    -3.654000000     6.141000000    -0.693000000
H    -3.699000000     6.241000000     0.816000000
O    -0.258000000    -0.852000000     4.038000000
H     0.681000000    -0.730000000     3.897000000
H    -0.493000000    -1.583000000     3.466000000
O     5.346000000    -1.313000000    -0.399000000
H     4.842000000    -2.120000000    -0.504000000
H     4.711000000    -0.674000000    -0.075000000
O     2.706000000    -5.536000000    -0.704000000
H     3.600000000    -5.426000000    -0.380000000
H     2.484000000    -4.686000000    -1.085000000
O     2.437000000    -2.936000000     3.801000000
H     3.180000000    -2.757000000     3.224000000
H     1.759000000    -3.279000000     3.219000000
O    -7.401000000     0.774000000    -0.431000000
H    -7.007000000     0.211000000    -1.098000000
H    -6.937000000     0.550000000     0.375000000
O     1.650000000     4.323000000     1.295000000
H     1.317000000     4.233000000     2.188000000
H     1.545000000     3.452000000     0.912000000
O    -5.073000000     3.170000000     0.337000000
H    -4.889000000     2.621000000    -0.426000000
H    -4.442000000     3.888000000     0.273000000
O    -2.132000000    -1.033000000    -4.440000000
H    -2.405000000    -0.119000000    -4.361000000
H    -1.232000000    -0.987000000    -4.763000000
O     2.230000000     2.257000000    -3.488000000
H     2.596000000     1.384000000    -3.351000000
H     2.620000000     2.554000000    -4.310000000
O     0.111000000    -7.075000000    -3.316000000
H     0.674000000    -6.306000000    -3.403000000
H     0.579000000    -7.646000000    -2.707000000
O     5.589000000     2.068000000     0.658000000
H     5.057000000     2.247000000    -0.117000000
H     5.908000000     2.928000000     0.934000000
O     0.142000000    -1.458000000    -5.864000000
H     0.537000000    -2.329000000    -5.913000000
H     0.835000000    -0.900000000    -5.514000000
O    -5.710000000    -0.993000000     1.124000000
H    -6.407000000    -1.067000000     1.776000000
H    -5.139000000    -1.741000000     1.299000000
O    -2.015000000     6.557000000    -1.938000000
H    -2.076000000     6.528000000    -2.893000000
H    -1.252000000     6.018000000    -1.730000000
O     5.074000000    -0.337000000     3.383000000
H     4.715000000    -1.116000000     2.959000000
H     5.961000000    -0.260000000     3.030000000
O     3.352000000    -0.262000000    -3.434000000
H     4.253000000    -0.077000000    -3.169000000
H     3.270000000    -1.213000000    -3.355000000
O     4.436000000    -2.799000000     2.148000000
H     3.740000000    -2.866000000     1.495000000
H     4.741000000    -3.698000000     2.266000000
O     3.644000000    -2.987000000    -3.025000000
H     3.531000000    -3.718000000    -3.632000000
H     3.024000000    -3.164000000    -2.318000000
O    -0.309000000     3.285000000    -4.744000000
H     0.097000000     3.159000000    -5.601000000
H     0.379000000     3.056000000    -4.118000000
O     3.795000000     5.893000000     1.201000000
H     3.355000000     6.419000000     1.869000000
H     3.211000000     5.148000000     1.060000000
O    -0.928000000    -2.631000000     2.024000000
H    -0.227000000    -3.197000000     1.701000000
H    -0.890000000    -1.858000000     1.461000000
O     5.183000000    -5.408000000     1.285000000
H     5.393000000    -5.041000000     0.426000000
H     4.886000000    -6.299000000     1.098000000
O    -2.477000000    -5.345000000    -4.642000000
H    -1.665000000    -5.597000000    -5.082000000
H    -2.200000000    -5.071000000    -3.768000000
O     5.390000000    -4.668000000    -1.260000000
H     5.861000000    -4.970000000    -2.037000000
H     5.073000000    -3.796000000    -1.496000000
O    -3.722000000    -1.830000000    -1.235000000
H    -4.141000000    -2.388000000    -0.579000000
H    -3.676000000    -0.968000000    -0.822000000
