144
-2831.48683
O    -0.858000000    -5.035000000    -5.086000000
H    -0.892000000    -4.119000000    -4.809000000
H    -1.774000000    -5.309000000    -5.121000000
O    -2.459000000     0.083000000     4.153000000
H    -2.376000000     1.004000000     3.904000000
H    -2.997000000    -0.304000000     3.462000000
O    -6.700000000    -1.158000000     1.348000000
H    -6.645000000    -1.910000000     0.758000000
H    -7.187000000    -0.499000000     0.852000000
O    -4.262000000    -1.431000000     2.747000000
H    -3.847000000    -2.243000000     3.038000000
H    -5.197000000    -1.633000000     2.729000000
O    -2.461000000    -4.474000000    -0.780000000
H    -1.673000000    -4.291000000    -1.293000000
H    -2.458000000    -5.424000000    -0.667000000
O     1.024000000     6.956000000    -0.617000000
H     0.498000000     6.648000000     0.121000000
H     1.670000000     6.264000000    -0.757000000
O    -3.478000000     4.763000000     3.259000000
H    -4.253000000     4.223000000     3.102000000
H    -2.836000000     4.158000000     3.631000000
O    -5.084000000     2.872000000    -1.337000000
H    -5.060000000     2.257000000    -0.604000000
H    -6.003000000     2.889000000    -1.604000000
O     2.120000000     4.169000000    -0.702000000
H     1.583000000     3.986000000    -1.473000000
H     2.935000000     3.694000000    -0.860000000
O    -6.537000000    -2.773000000    -2.287000000
H    -5.758000000    -2.230000000    -2.166000000
H    -6.628000000    -3.248000000    -1.461000000
O     1.599000000     5.631000000     4.556000000
H     2.363000000     6.124000000     4.858000000
H     1.843000000     4.714000000     4.677000000
O     0.325000000     6.118000000     1.972000000
H     0.620000000     5.757000000     2.808000000
H     0.044000000     7.008000000     2.181000000
O     0.691000000     1.094000000     5.153000000
H     1.379000000     1.740000000     5.314000000
H     0.973000000     0.636000000     4.361000000
O    -3.093000000    -3.732000000     3.142000000
H    -3.005000000    -4.469000000     3.746000000
H    -2.237000000    -3.305000000     3.158000000
O    -1.901000000     2.767000000     4.383000000
H    -2.059000000     2.708000000     5.325000000
H    -0.948000000     2.822000000     4.303000000
O     3.236000000    -4.993000000     1.500000000
H     3.743000000    -5.755000000     1.218000000
H     2.355000000    -5.336000000     1.654000000
O     3.071000000     5.042000000     1.534000000
H     2.565000000     5.751000000     1.931000000
H     2.557000000     4.779000000     0.772000000
O    -1.551000000    -7.416000000    -1.328000000
H    -2.071000000    -7.389000000    -0.525000000
H    -0.844000000    -6.788000000    -1.176000000
O     6.966000000    -0.709000000    -4.266000000
H     7.594000000    -1.273000000    -3.816000000
H     6.324000000    -0.481000000    -3.594000000
O    -5.605000000     3.142000000     3.079000000
H    -5.845000000     2.738000000     3.913000000
H    -5.184000000     2.439000000     2.584000000
O     4.792000000     2.653000000    -4.570000000
H     4.617000000     2.138000000    -5.357000000
H     3.929000000     2.797000000    -4.182000000
O     0.132000000    -5.498000000    -0.555000000
H     0.032000000    -5.113000000     0.316000000
H     0.775000000    -4.938000000    -0.991000000
O    -2.679000000     2.280000000    -2.458000000
H    -2.675000000     2.876000000    -3.207000000
H    -3.526000000     2.429000000    -2.038000000
O     1.795000000    -6.423000000    -5.675000000
H     0.943000000    -6.096000000    -5.384000000
H     2.351000000    -6.366000000    -4.898000000
O     4.558000000    -7.373000000    -0.174000000
H     4.345000000    -6.658000000    -0.774000000
H     5.345000000    -7.077000000     0.282000000
O    -2.180000000     5.869000000     0.988000000
H    -1.258000000     5.963000000     1.230000000
H    -2.629000000     5.704000000     1.817000000
O    -0.025000000     3.909000000    -2.860000000
H    -0.071000000     4.425000000    -3.665000000
H    -0.933000000     3.670000000    -2.676000000
O     3.625000000    -5.729000000    -3.644000000
H     3.390000000    -5.230000000    -2.862000000
H     4.078000000    -6.502000000    -3.307000000
O     4.074000000    -1.407000000     1.442000000
H     3.790000000    -1.564000000     0.542000000
H     3.281000000    -1.122000000     1.897000000
O     3.886000000    -4.464000000    -0.994000000
H     3.606000000    -3.584000000    -1.245000000
H     3.474000000    -4.613000000    -0.143000000
O    -0.150000000    -3.954000000     3.526000000
H    -0.077000000    -4.870000000     3.793000000
H     0.558000000    -3.510000000     3.993000000
O     2.641000000     2.831000000     4.779000000
H     2.877000000     2.550000000     3.895000000
H     3.473000000     3.081000000     5.181000000
O    -4.668000000     5.470000000    -0.330000000
H    -4.437000000     4.566000000    -0.546000000
H    -3.833000000     5.938000000    -0.334000000
O    -3.791000000    -1.818000000    -1.987000000
H    -3.402000000    -2.073000000    -1.151000000
H    -3.300000000    -2.315000000    -2.642000000
O     4.555000000    -1.802000000    -5.161000000
H     5.369000000    -2.051000000    -5.598000000
H     4.830000000    -1.211000000    -4.460000000
O     1.239000000     0.074000000    -4.584000000
H     0.371000000     0.090000000    -4.181000000
H     1.514000000    -0.841000000    -4.526000000
O    -0.760000000    -2.596000000    -3.641000000
H    -0.944000000    -1.668000000    -3.496000000
H     0.059000000    -2.755000000    -3.172000000
O     3.680000000     2.388000000     2.109000000
H     3.457000000     3.319000000     2.098000000
H     4.432000000     2.316000000     1.521000000
O     4.081000000     2.225000000    -1.211000000
H     3.507000000     2.139000000    -1.972000000
H     4.965000000     2.237000000    -1.578000000
O     2.032000000    -2.623000000    -4.671000000
H     2.124000000    -3.009000000    -3.800000000
H     2.931000000    -2.504000000    -4.976000000
O     2.132000000     2.319000000    -3.297000000
H     1.293000000     2.737000000    -3.102000000
H     1.898000000     1.523000000    -3.774000000
O     4.941000000    -0.584000000    -2.334000000
H     4.891000000     0.197000000    -1.783000000
H     4.428000000    -1.242000000    -1.864000000
O     6.417000000    -1.883000000     2.509000000
H     5.540000000    -1.833000000     2.128000000
H     6.559000000    -1.018000000     2.895000000
O    -0.946000000     0.045000000    -2.950000000
H    -1.785000000     0.506000000    -2.978000000
H    -0.666000000     0.112000000    -2.037000000
O    -4.357000000    -4.850000000     1.107000000
H    -3.837000000    -4.532000000     0.369000000
H    -3.990000000    -4.403000000     1.870000000
O     1.620000000     0.114000000     2.682000000
H     0.735000000    -0.233000000     2.573000000
H     1.687000000     0.810000000     2.028000000
O     6.796000000    -3.900000000    -1.402000000
H     5.849000000    -4.029000000    -1.451000000
H     7.092000000    -4.543000000    -0.758000000
O    -5.141000000     1.164000000     1.154000000
H    -5.038000000     0.221000000     1.280000000
H    -6.059000000     1.274000000     0.905000000
