144
-2810.37615
O    -1.737000000    -4.714000000    -5.745000000
H    -1.754000000    -4.314000000    -4.875000000
H    -2.483000000    -4.327000000    -6.201000000
O    -3.277000000    -0.541000000     4.521000000
H    -3.265000000    -1.411000000     4.121000000
H    -3.863000000    -0.632000000     5.272000000
O    -1.304000000     0.728000000     5.500000000
H    -1.889000000     0.234000000     4.925000000
H    -0.431000000     0.585000000     5.135000000
O    -2.254000000     1.929000000    -1.855000000
H    -2.416000000     2.621000000    -1.214000000
H    -2.151000000     1.135000000    -1.330000000
O    -2.555000000     2.977000000     6.156000000
H    -3.344000000     2.652000000     6.591000000
H    -2.102000000     2.187000000     5.862000000
O    -5.189000000     2.196000000     0.130000000
H    -4.796000000     1.644000000     0.806000000
H    -6.003000000     1.748000000    -0.102000000
O    -3.409000000    -2.665000000    -3.954000000
H    -3.229000000    -1.725000000    -3.958000000
H    -4.053000000    -2.782000000    -3.256000000
O    -4.646000000     1.374000000     2.888000000
H    -5.280000000     1.172000000     3.576000000
H    -3.855000000     0.901000000     3.146000000
O    -4.475000000     2.869000000    -3.054000000
H    -5.332000000     2.464000000    -3.187000000
H    -3.915000000     2.153000000    -2.755000000
O     1.558000000     4.316000000    -0.276000000
H     1.891000000     3.954000000     0.545000000
H     2.146000000     5.045000000    -0.472000000
O     2.076000000     2.572000000    -2.456000000
H     2.787000000     1.949000000    -2.307000000
H     2.108000000     3.157000000    -1.698000000
O    -3.148000000    -2.946000000     3.047000000
H    -2.565000000    -3.564000000     2.606000000
H    -3.260000000    -3.309000000     3.926000000
O     6.174000000     0.711000000     2.538000000
H     5.972000000     1.508000000     3.027000000
H     5.566000000     0.058000000     2.884000000
O     1.546000000     0.554000000     4.689000000
H     2.267000000     0.492000000     5.315000000
H     1.345000000    -0.355000000     4.466000000
O    -2.287000000    -5.347000000    -2.181000000
H    -1.692000000    -4.664000000    -2.490000000
H    -1.726000000    -6.113000000    -2.053000000
O     4.018000000    -0.755000000     3.306000000
H     4.170000000    -1.287000000     4.086000000
H     3.076000000    -0.822000000     3.150000000
O    -0.938000000     6.347000000    -1.151000000
H    -1.605000000     6.459000000    -1.828000000
H    -1.181000000     5.535000000    -0.707000000
O    -3.228000000    -3.094000000    -0.304000000
H    -3.214000000    -2.905000000     0.634000000
H    -2.773000000    -3.932000000    -0.385000000
O     0.054000000    -3.882000000    -3.489000000
H     0.784000000    -4.185000000    -4.028000000
H     0.159000000    -2.931000000    -3.456000000
O    -0.377000000    -0.034000000    -5.086000000
H    -0.031000000    -0.464000000    -4.304000000
H     0.083000000    -0.454000000    -5.813000000
O     1.563000000    -2.700000000    -7.728000000
H     2.223000000    -3.089000000    -8.302000000
H     1.934000000    -1.855000000    -7.473000000
O    -1.361000000    -1.982000000     7.161000000
H    -0.487000000    -2.371000000     7.181000000
H    -1.232000000    -1.125000000     6.755000000
O    -1.771000000     4.988000000     3.842000000
H    -2.013000000     4.678000000     4.714000000
H    -2.356000000     4.517000000     3.249000000
O    -4.715000000     4.558000000     4.807000000
H    -4.673000000     4.552000000     3.851000000
H    -4.073000000     3.902000000     5.079000000
O    -5.679000000    -2.811000000     1.909000000
H    -6.216000000    -2.054000000     2.143000000
H    -4.864000000    -2.685000000     2.395000000
O     4.980000000    -4.922000000    -1.113000000
H     4.642000000    -4.452000000    -1.875000000
H     4.780000000    -4.350000000    -0.372000000
O     3.949000000    -3.459000000    -3.183000000
H     3.566000000    -2.674000000    -2.792000000
H     4.352000000    -3.151000000    -3.994000000
O     1.764000000    -3.814000000     1.927000000
H     2.452000000    -3.969000000     2.575000000
H     2.191000000    -3.297000000     1.243000000
O     7.798000000    -0.634000000    -2.870000000
H     6.912000000    -0.505000000    -2.530000000
H     7.781000000    -0.236000000    -3.740000000
O     1.619000000     3.214000000     4.264000000
H     1.275000000     3.477000000     5.118000000
H     1.662000000     2.259000000     4.307000000
O    -3.060000000     0.111000000    -4.500000000
H    -2.856000000     0.884000000    -3.973000000
H    -2.393000000     0.107000000    -5.187000000
O     2.791000000     1.778000000    -5.318000000
H     2.480000000     2.112000000    -4.477000000
H     2.166000000     2.121000000    -5.958000000
O     5.149000000    -0.016000000    -2.839000000
H     5.159000000     0.804000000    -2.345000000
H     4.288000000    -0.394000000    -2.661000000
O     0.348000000     6.285000000     2.120000000
H     0.517000000     6.040000000     1.210000000
H    -0.580000000     6.091000000     2.252000000
O    -0.992000000     3.689000000     0.192000000
H    -0.056000000     3.657000000    -0.007000000
H    -1.030000000     3.835000000     1.138000000
O     4.171000000    -2.900000000    -5.915000000
H     4.876000000    -2.717000000    -6.535000000
H     3.557000000    -2.175000000    -6.029000000
O    -0.353000000     3.705000000    -3.203000000
H    -1.043000000     3.313000000    -2.668000000
H     0.456000000     3.315000000    -2.874000000
O    -3.892000000     4.016000000     2.122000000
H    -4.488000000     4.393000000     1.475000000
H    -4.113000000     3.084000000     2.137000000
O     1.115000000    -5.274000000    -1.490000000
H     0.737000000    -4.765000000    -2.207000000
H     1.944000000    -4.837000000    -1.295000000
O     1.037000000    -1.857000000     3.922000000
H     0.816000000    -2.286000000     3.095000000
H     1.115000000    -2.574000000     4.551000000
O     3.549000000    -2.361000000     0.021000000
H     4.112000000    -1.719000000     0.455000000
H     3.208000000    -1.900000000    -0.746000000
O     3.183000000     3.839000000     1.940000000
H     2.545000000     3.229000000     2.311000000
H     3.058000000     4.647000000     2.437000000
O    -6.690000000    -2.008000000    -0.587000000
H    -6.235000000    -2.213000000     0.229000000
H    -6.261000000    -2.555000000    -1.245000000
O     2.520000000    -0.981000000    -5.615000000
H     2.102000000    -1.261000000    -4.800000000
H     2.674000000    -0.044000000    -5.495000000
O     2.448000000    -5.017000000    -5.222000000
H     3.027000000    -5.024000000    -4.460000000
H     2.840000000    -4.378000000    -5.816000000
O     6.222000000    -1.688000000     0.923000000
H     6.239000000    -0.808000000     1.299000000
H     6.190000000    -2.272000000     1.681000000
O     4.925000000     2.267000000    -1.596000000
H     4.711000000     2.710000000    -0.775000000
H     5.043000000     2.976000000    -2.227000000
O     5.390000000     1.408000000    -5.258000000
H     5.341000000     0.665000000    -4.657000000
H     4.502000000     1.765000000    -5.271000000
