144
-2834.20865
O    -0.352000000    -1.833000000    -8.001000000
H    -0.385000000    -1.078000000    -7.415000000
H     0.088000000    -1.508000000    -8.787000000
O     6.415000000     0.298000000     0.977000000
H     7.160000000     0.028000000     1.513000000
H     5.879000000    -0.491000000     0.898000000
O     6.946000000     0.303000000    -2.124000000
H     6.678000000     0.237000000    -1.207000000
H     6.466000000    -0.398000000    -2.565000000
O    -5.762000000     3.624000000     3.288000000
H    -5.154000000     3.857000000     2.587000000
H    -5.209000000     3.534000000     4.064000000
O    -2.950000000     1.798000000    -1.771000000
H    -2.627000000     0.934000000    -1.514000000
H    -3.797000000     1.877000000    -1.333000000
O    -5.129000000     1.938000000    -0.175000000
H    -5.104000000     1.062000000     0.212000000
H    -5.936000000     1.950000000    -0.689000000
O    -3.221000000    -0.882000000     6.107000000
H    -2.362000000    -1.154000000     6.432000000
H    -3.653000000    -0.494000000     6.867000000
O    -0.700000000    -0.085000000    -6.004000000
H    -0.910000000     0.839000000    -5.867000000
H    -0.315000000    -0.368000000    -5.174000000
O     3.478000000    -2.680000000    -7.170000000
H     2.988000000    -2.768000000    -6.352000000
H     3.496000000    -1.737000000    -7.337000000
O     1.641000000     4.806000000    -2.598000000
H     1.687000000     4.521000000    -3.510000000
H     0.781000000     4.512000000    -2.298000000
O    -2.280000000    -2.959000000     1.848000000
H    -2.423000000    -3.863000000     1.568000000
H    -1.340000000    -2.819000000     1.737000000
O    -4.225000000     0.652000000     4.214000000
H    -3.659000000     0.368000000     3.496000000
H    -3.873000000     0.210000000     4.986000000
O     2.380000000     1.517000000     4.185000000
H     1.855000000     0.717000000     4.159000000
H     2.889000000     1.444000000     4.992000000
O    -3.544000000    -0.273000000    -5.094000000
H    -4.122000000    -1.017000000    -4.929000000
H    -2.758000000    -0.661000000    -5.479000000
O     1.361000000     3.993000000     4.579000000
H     1.695000000     3.125000000     4.353000000
H     1.742000000     4.181000000     5.437000000
O    -0.517000000    -4.802000000    -2.252000000
H    -1.047000000    -4.618000000    -1.477000000
H    -0.969000000    -4.350000000    -2.964000000
O    -3.406000000     2.958000000     5.126000000
H    -3.866000000     2.145000000     4.915000000
H    -2.567000000     2.671000000     5.487000000
O     3.418000000     5.409000000    -0.480000000
H     2.732000000     5.400000000    -1.147000000
H     2.944000000     5.391000000     0.351000000
O     0.759000000    -0.637000000     4.115000000
H     0.663000000    -0.789000000     3.175000000
H     0.419000000    -1.434000000     4.522000000
O    -0.899000000    -3.151000000    -5.356000000
H    -0.101000000    -3.621000000    -5.114000000
H    -0.660000000    -2.661000000    -6.142000000
O     2.240000000    -2.925000000    -4.973000000
H     2.105000000    -3.501000000    -4.221000000
H     1.956000000    -2.063000000    -4.669000000
O     1.790000000     1.219000000    -4.967000000
H     2.024000000     0.959000000    -5.858000000
H     1.618000000     0.394000000    -4.513000000
O    -0.444000000     5.828000000     3.635000000
H    -0.954000000     5.443000000     2.923000000
H    -0.046000000     5.079000000     4.078000000
O     6.432000000    -3.620000000    -0.280000000
H     5.798000000    -2.941000000    -0.048000000
H     6.379000000    -4.251000000     0.437000000
O    -4.864000000    -0.774000000     0.181000000
H    -5.351000000    -1.357000000    -0.401000000
H    -4.510000000    -1.351000000     0.858000000
O     2.205000000    -5.495000000     0.182000000
H     1.659000000    -6.054000000    -0.371000000
H     2.690000000    -4.947000000    -0.435000000
O     4.277000000    -4.470000000    -2.144000000
H     5.054000000    -4.300000000    -1.613000000
H     4.432000000    -3.987000000    -2.956000000
O     4.427000000    -1.929000000    -0.106000000
H     3.856000000    -2.181000000     0.620000000
H     3.857000000    -1.442000000    -0.701000000
O    -0.949000000     1.985000000     5.703000000
H    -0.316000000     1.852000000     4.997000000
H    -0.497000000     1.679000000     6.490000000
O    -6.248000000    -1.328000000     3.763000000
H    -5.812000000    -0.476000000     3.790000000
H    -7.168000000    -1.122000000     3.597000000
O    -3.123000000     2.294000000    -4.425000000
H    -2.973000000     2.389000000    -3.485000000
H    -3.409000000     1.387000000    -4.532000000
O     1.433000000     4.177000000    -5.182000000
H     1.459000000     3.249000000    -5.414000000
H     2.324000000     4.489000000    -5.340000000
O    -4.688000000    -3.050000000     5.306000000
H    -3.902000000    -2.507000000     5.366000000
H    -5.264000000    -2.572000000     4.709000000
O     4.068000000     2.807000000    -1.185000000
H     3.997000000     2.356000000    -0.344000000
H     3.772000000     3.699000000    -1.005000000
O    -4.278000000     4.369000000     0.637000000
H    -4.769000000     5.061000000     0.195000000
H    -4.520000000     3.569000000     0.170000000
O    -1.399000000     4.623000000     1.242000000
H    -2.344000000     4.524000000     1.356000000
H    -1.230000000     4.301000000     0.357000000
O     5.522000000    -3.721000000    -4.658000000
H     4.934000000    -3.905000000    -5.391000000
H     5.849000000    -2.837000000    -4.829000000
O    -0.711000000     3.507000000    -1.191000000
H     0.055000000     2.961000000    -1.015000000
H    -1.428000000     2.884000000    -1.309000000
O     2.040000000    -5.162000000    -3.385000000
H     2.908000000    -5.229000000    -2.987000000
H     1.437000000    -5.143000000    -2.641000000
O     0.077000000    -2.824000000     5.447000000
H    -0.243000000    -2.220000000     6.117000000
H    -0.322000000    -3.664000000     5.672000000
O     0.643000000    -2.970000000     1.582000000
H     0.935000000    -2.502000000     0.800000000
H     1.447000000    -3.148000000     2.069000000
O     1.293000000     4.353000000     1.717000000
H     0.368000000     4.169000000     1.553000000
H     1.293000000     4.892000000     2.508000000
O     4.615000000    -0.739000000    -3.878000000
H     4.024000000    -1.029000000    -3.182000000
H     4.485000000     0.208000000    -3.924000000
O     3.291000000    -2.784000000     2.260000000
H     3.411000000    -2.016000000     2.819000000
H     4.121000000    -3.257000000     2.321000000
O     5.869000000     2.699000000     2.083000000
H     6.120000000     1.897000000     1.625000000
H     4.944000000     2.817000000     1.869000000
O     3.198000000     2.565000000     1.662000000
H     3.201000000     2.413000000     2.607000000
H     2.618000000     3.318000000     1.542000000
O     4.263000000     2.012000000    -4.068000000
H     4.296000000     2.362000000    -3.178000000
H     3.330000000     1.903000000    -4.248000000
O     4.289000000    -1.010000000     4.501000000
H     5.245000000    -1.049000000     4.536000000
H     4.058000000    -0.280000000     5.076000000
