144
-2825.33099
O     3.570000000     0.965000000    -4.605000000
H     4.093000000     1.575000000    -4.084000000
H     4.011000000     0.122000000    -4.501000000
O     7.020000000    -2.959000000    -2.999000000
H     6.524000000    -2.901000000    -2.183000000
H     7.865000000    -2.558000000    -2.795000000
O     3.521000000    -2.322000000    -4.198000000
H     3.539000000    -2.069000000    -3.275000000
H     2.971000000    -3.105000000    -4.222000000
O    -3.652000000    -3.446000000    -0.754000000
H    -2.905000000    -3.838000000    -0.301000000
H    -4.337000000    -3.395000000    -0.086000000
O     0.097000000     2.223000000     3.763000000
H     0.448000000     1.512000000     3.227000000
H     0.207000000     1.921000000     4.664000000
O    -2.770000000     1.238000000     5.441000000
H    -1.837000000     1.300000000     5.646000000
H    -2.918000000     1.926000000     4.792000000
O     2.200000000    -2.483000000     1.954000000
H     1.864000000    -2.921000000     1.172000000
H     2.106000000    -3.132000000     2.651000000
O     2.944000000    -5.591000000    -3.137000000
H     3.100000000    -5.089000000    -2.337000000
H     3.762000000    -5.518000000    -3.629000000
O     5.513000000    -5.058000000    -4.322000000
H     5.616000000    -4.261000000    -3.801000000
H     6.361000000    -5.497000000    -4.258000000
O    -1.993000000     4.320000000    -0.955000000
H    -1.613000000     5.007000000    -1.503000000
H    -1.760000000     3.504000000    -1.397000000
O    -1.222000000     2.528000000    -2.955000000
H    -0.344000000     2.652000000    -3.316000000
H    -1.362000000     1.582000000    -2.986000000
O    -5.093000000    -1.971000000     3.181000000
H    -5.121000000    -1.335000000     3.896000000
H    -5.126000000    -2.823000000     3.616000000
O    -1.655000000    -1.278000000     4.431000000
H    -0.966000000    -1.158000000     5.085000000
H    -1.680000000    -0.449000000     3.954000000
O     5.402000000     3.447000000    -4.172000000
H     4.855000000     4.159000000    -4.502000000
H     5.371000000     3.542000000    -3.220000000
O    -6.113000000     4.361000000     0.531000000
H    -6.391000000     3.544000000     0.118000000
H    -6.473000000     5.048000000    -0.030000000
O     2.326000000    -6.822000000    -0.234000000
H     2.867000000    -6.764000000     0.554000000
H     2.443000000    -5.976000000    -0.667000000
O     1.437000000     2.916000000    -3.781000000
H     1.640000000     2.135000000    -4.295000000
H     2.065000000     2.898000000    -3.059000000
O    -2.385000000     3.229000000     3.599000000
H    -2.583000000     3.531000000     2.713000000
H    -1.478000000     2.928000000     3.552000000
O     5.055000000    -3.497000000     2.191000000
H     4.125000000    -3.636000000     2.366000000
H     5.073000000    -2.879000000     1.460000000
O     5.743000000     2.746000000     1.350000000
H     4.946000000     3.246000000     1.172000000
H     6.318000000     3.364000000     1.801000000
O    -2.243000000    -4.550000000     1.183000000
H    -2.769000000    -4.881000000     1.911000000
H    -1.338000000    -4.646000000     1.478000000
O     3.191000000    -4.265000000    -0.613000000
H     4.093000000    -4.188000000    -0.302000000
H     2.980000000    -3.396000000    -0.953000000
O     3.970000000    -1.455000000    -6.602000000
H     4.702000000    -0.839000000    -6.643000000
H     3.937000000    -1.726000000    -5.685000000
O    -5.744000000    -1.047000000     0.643000000
H    -5.772000000    -0.100000000     0.775000000
H    -5.642000000    -1.409000000     1.523000000
O     1.089000000     6.265000000     3.538000000
H     1.047000000     7.221000000     3.529000000
H     0.382000000     5.989000000     2.954000000
O     7.707000000     0.912000000    -2.688000000
H     8.408000000     1.476000000    -2.361000000
H     7.141000000     0.771000000    -1.929000000
O    -6.943000000     1.864000000     1.378000000
H    -6.955000000     2.698000000     1.847000000
H    -6.880000000     1.203000000     2.067000000
O    -0.668000000    -0.082000000    -3.210000000
H    -1.438000000    -0.649000000    -3.173000000
H    -0.145000000    -0.337000000    -2.450000000
O    -2.979000000    -4.238000000     4.056000000
H    -3.313000000    -4.305000000     4.950000000
H    -2.569000000    -3.374000000     4.018000000
O     6.047000000    -0.557000000    -3.989000000
H     6.243000000    -1.400000000    -3.581000000
H     6.797000000    -0.004000000    -3.769000000
O     5.317000000    -2.344000000    -0.469000000
H     4.467000000    -2.030000000    -0.779000000
H     5.743000000    -1.565000000    -0.111000000
O     0.318000000    -5.568000000    -4.200000000
H     0.050000000    -4.665000000    -4.371000000
H     1.023000000    -5.490000000    -3.557000000
O     0.498000000     0.825000000    -5.526000000
H     1.326000000     0.354000000    -5.616000000
H    -0.027000000     0.277000000    -4.942000000
O    -4.316000000    -0.990000000     6.077000000
H    -3.852000000    -1.355000000     6.830000000
H    -3.640000000    -0.535000000     5.576000000
O    -4.990000000     2.399000000     6.575000000
H    -4.302000000     1.834000000     6.223000000
H    -5.053000000     2.154000000     7.498000000
O     6.172000000     0.353000000    -0.586000000
H     6.208000000     1.183000000    -0.111000000
H     5.316000000     0.360000000    -1.015000000
O    -2.766000000    -1.709000000    -2.829000000
H    -2.424000000    -2.402000000    -3.394000000
H    -3.183000000    -2.175000000    -2.105000000
O    -3.944000000    -5.267000000    -2.799000000
H    -4.516000000    -5.878000000    -2.334000000
H    -3.855000000    -4.523000000    -2.204000000
O    -5.167000000     4.166000000     4.576000000
H    -4.234000000     4.067000000     4.388000000
H    -5.341000000     3.526000000     5.266000000
O     6.060000000    -5.205000000    -0.057000000
H     6.318000000    -5.457000000     0.830000000
H     6.203000000    -4.259000000    -0.088000000
O    -0.246000000     5.445000000     1.219000000
H    -0.937000000     6.094000000     1.354000000
H    -0.647000000     4.782000000     0.657000000
O    -3.568000000     4.567000000     1.268000000
H    -4.459000000     4.780000000     0.991000000
H    -3.058000000     4.575000000     0.458000000
O     2.173000000     6.378000000     0.444000000
H     2.337000000     7.026000000     1.129000000
H     1.255000000     6.135000000     0.558000000
O     3.586000000     4.154000000     0.743000000
H     3.035000000     4.921000000     0.592000000
H     3.729000000     4.145000000     1.690000000
O     1.199000000    -0.077000000     2.880000000
H     1.173000000     0.039000000     1.930000000
H     1.740000000    -0.855000000     3.012000000
O     3.177000000     1.998000000     3.965000000
H     2.483000000     1.406000000     3.674000000
H     3.623000000     1.519000000     4.664000000
O     3.639000000     2.938000000    -1.662000000
H     3.663000000     1.983000000    -1.604000000
H     3.471000000     3.228000000    -0.765000000
O    -1.208000000    -3.308000000    -4.692000000
H    -2.037000000    -3.743000000    -4.893000000
H    -1.268000000    -2.461000000    -5.134000000
