144
-2838.33727
O    -1.634000000    -4.216000000    -2.794000000
H    -1.186000000    -4.283000000    -1.951000000
H    -1.088000000    -3.622000000    -3.309000000
O     7.389000000     0.984000000    -0.293000000
H     6.717000000     0.303000000    -0.317000000
H     8.187000000     0.543000000    -0.585000000
O     4.621000000    -4.510000000     0.511000000
H     5.375000000    -4.534000000    -0.079000000
H     4.009000000    -3.904000000     0.093000000
O    -4.583000000     6.394000000    -1.328000000
H    -4.304000000     5.481000000    -1.263000000
H    -5.020000000     6.451000000    -2.178000000
O    -3.788000000    -2.658000000    -4.045000000
H    -3.303000000    -3.264000000    -3.485000000
H    -4.599000000    -3.122000000    -4.254000000
O     0.771000000    -6.624000000     2.192000000
H     1.523000000    -6.034000000     2.134000000
H     1.023000000    -7.385000000     1.668000000
O     0.839000000    -5.690000000    -1.646000000
H     1.571000000    -5.170000000    -1.980000000
H     0.768000000    -6.424000000    -2.256000000
O     3.295000000    -5.044000000     3.580000000
H     4.072000000    -5.557000000     3.359000000
H     3.571000000    -4.497000000     4.316000000
O     2.719000000     1.086000000     4.610000000
H     1.764000000     1.148000000     4.634000000
H     2.995000000     1.847000000     4.099000000
O     4.480000000    -0.788000000     3.422000000
H     4.001000000    -0.336000000     4.118000000
H     4.150000000    -0.397000000     2.613000000
O     2.441000000    -3.310000000    -2.540000000
H     2.438000000    -2.973000000    -1.644000000
H     3.279000000    -3.022000000    -2.902000000
O    -4.630000000     5.542000000     2.380000000
H    -4.797000000     4.796000000     1.804000000
H    -4.766000000     5.198000000     3.263000000
O     1.894000000     4.333000000     0.142000000
H     1.003000000     4.454000000    -0.185000000
H     2.441000000     4.339000000    -0.644000000
O     1.797000000    -3.732000000     1.665000000
H     2.363000000    -3.384000000     0.976000000
H     2.393000000    -4.204000000     2.248000000
O     1.938000000     2.757000000    -3.848000000
H     2.594000000     3.185000000    -3.298000000
H     2.418000000     2.062000000    -4.297000000
O    -3.113000000    -4.663000000     0.474000000
H    -3.243000000    -5.574000000     0.738000000
H    -2.178000000    -4.507000000     0.604000000
O    -0.115000000     0.622000000     3.132000000
H     0.130000000     0.999000000     2.287000000
H     0.364000000    -0.205000000     3.174000000
O    -3.406000000     5.610000000    -4.344000000
H    -3.253000000     4.978000000    -3.642000000
H    -3.034000000     6.428000000    -4.015000000
O    -1.908000000     6.457000000     0.535000000
H    -2.559000000     7.154000000     0.454000000
H    -2.373000000     5.745000000     0.975000000
O    -4.367000000     2.791000000    -5.611000000
H    -4.240000000     2.062000000    -5.004000000
H    -4.644000000     3.520000000    -5.055000000
O     4.186000000     4.058000000    -2.578000000
H     4.760000000     3.594000000    -1.969000000
H     4.678000000     4.085000000    -3.399000000
O    -2.606000000     1.061000000     3.956000000
H    -2.142000000     1.418000000     4.713000000
H    -1.913000000     0.730000000     3.385000000
O     4.514000000    -7.013000000     1.944000000
H     4.759000000    -6.198000000     1.506000000
H     3.955000000    -7.466000000     1.313000000
O     7.753000000     0.698000000     2.797000000
H     7.525000000     0.775000000     1.870000000
H     7.068000000     1.186000000     3.253000000
O     1.000000000    -1.801000000     3.652000000
H     1.231000000    -2.378000000     4.380000000
H     1.108000000    -2.344000000     2.871000000
O    -3.774000000     0.413000000    -4.662000000
H    -3.228000000     0.467000000    -5.446000000
H    -3.539000000    -0.424000000    -4.263000000
O     4.852000000    -1.958000000    -2.753000000
H     5.169000000    -1.055000000    -2.743000000
H     4.395000000    -2.060000000    -1.918000000
O    -3.869000000    -2.145000000     1.108000000
H    -3.773000000    -3.096000000     1.063000000
H    -3.075000000    -1.844000000     1.551000000
O    -5.069000000     1.901000000     3.491000000
H    -4.259000000     1.391000000     3.481000000
H    -5.656000000     1.407000000     4.062000000
O     2.939000000    -0.072000000    -4.856000000
H     3.257000000    -0.474000000    -4.047000000
H     2.653000000    -0.810000000    -5.394000000
O    -1.553000000    -2.448000000     3.221000000
H    -0.901000000    -1.775000000     3.418000000
H    -1.109000000    -3.274000000     3.410000000
O    -0.585000000    -4.482000000     0.502000000
H    -0.033000000    -4.017000000     1.130000000
H     0.022000000    -5.039000000     0.016000000
O     6.028000000    -1.408000000    -0.227000000
H     5.214000000    -1.136000000     0.196000000
H     6.505000000    -1.884000000     0.453000000
O     0.241000000    -2.634000000    -4.038000000
H     1.074000000    -2.759000000    -3.583000000
H     0.443000000    -2.807000000    -4.958000000
O     5.264000000     0.699000000    -2.459000000
H     6.105000000     1.143000000    -2.571000000
H     4.870000000     1.121000000    -1.696000000
O    -5.581000000     2.306000000    -1.361000000
H    -5.619000000     1.386000000    -1.102000000
H    -5.484000000     2.783000000    -0.537000000
O     6.079000000    -2.768000000     2.208000000
H     5.383000000    -3.351000000     1.906000000
H     5.636000000    -2.144000000     2.783000000
O    -3.065000000     3.854000000    -2.199000000
H    -3.638000000     3.247000000    -1.732000000
H    -2.453000000     3.290000000    -2.673000000
O    -1.123000000    -0.420000000    -3.163000000
H    -0.903000000    -0.472000000    -2.233000000
H    -0.531000000    -1.044000000    -3.584000000
O    -6.022000000    -0.649000000    -2.644000000
H    -5.674000000    -0.425000000    -1.781000000
H    -5.327000000    -1.159000000    -3.059000000
O    -4.425000000    -1.202000000     4.517000000
H    -3.687000000    -0.600000000     4.615000000
H    -4.220000000    -1.705000000     3.729000000
O    -5.560000000     3.502000000     1.239000000
H    -5.296000000     2.886000000     1.922000000
H    -6.460000000     3.739000000     1.463000000
O     3.424000000     4.850000000     2.158000000
H     3.139000000     4.497000000     3.001000000
H     2.702000000     4.657000000     1.560000000
O    -0.132000000     5.569000000    -1.246000000
H    -0.647000000     5.811000000    -0.476000000
H    -0.668000000     5.846000000    -1.989000000
O    -5.594000000    -0.253000000     0.143000000
H    -6.295000000    -0.483000000     0.753000000
H    -4.858000000    -0.807000000     0.406000000
O     5.747000000     3.481000000     2.071000000
H     5.924000000     3.201000000     2.970000000
H     4.934000000     3.981000000     2.131000000
O    -0.982000000     2.473000000    -3.523000000
H    -1.157000000     1.536000000    -3.608000000
H    -0.047000000     2.524000000    -3.321000000
O     4.701000000     1.923000000     0.072000000
H     4.110000000     1.227000000     0.360000000
H     5.091000000     2.255000000     0.881000000
