144
-2826.54925
O    -0.320000000    -4.837000000     1.547000000
H    -0.657000000    -4.986000000     2.430000000
H     0.601000000    -4.611000000     1.676000000
O    -5.476000000    -1.437000000    -1.222000000
H    -5.306000000    -1.951000000    -0.433000000
H    -5.240000000    -2.020000000    -1.943000000
O    -0.492000000    -5.023000000    -1.171000000
H    -0.494000000    -4.950000000    -0.217000000
H     0.280000000    -4.528000000    -1.447000000
O     1.958000000    -3.811000000     3.132000000
H     1.498000000    -4.249000000     3.848000000
H     1.986000000    -2.890000000     3.394000000
O    -3.124000000    -0.220000000     4.873000000
H    -3.538000000    -0.619000000     4.107000000
H    -2.192000000    -0.408000000     4.766000000
O    -3.007000000    -0.441000000    -5.096000000
H    -2.713000000     0.276000000    -4.535000000
H    -2.441000000    -1.177000000    -4.861000000
O     0.247000000     6.271000000     2.448000000
H     0.910000000     5.824000000     1.922000000
H    -0.583000000     6.055000000     2.023000000
O     3.145000000    -3.411000000     6.774000000
H     3.705000000    -2.764000000     6.345000000
H     3.451000000    -4.254000000     6.439000000
O    -1.482000000    -2.585000000    -4.478000000
H    -1.452000000    -3.416000000    -4.004000000
H    -0.787000000    -2.059000000    -4.081000000
O    -2.819000000     2.854000000    -4.821000000
H    -3.229000000     2.305000000    -5.489000000
H    -3.539000000     3.102000000    -4.240000000
O     0.237000000     0.210000000    -4.956000000
H     0.360000000     0.099000000    -4.013000000
H     0.728000000     1.004000000    -5.169000000
O    -4.407000000    -3.314000000     0.462000000
H    -4.466000000    -4.053000000    -0.143000000
H    -4.203000000    -3.712000000     1.308000000
O     3.308000000     1.821000000     5.387000000
H     3.036000000     1.530000000     6.257000000
H     2.491000000     2.054000000     4.946000000
O    -5.773000000     1.137000000    -0.751000000
H    -5.177000000     1.250000000    -0.011000000
H    -5.687000000     0.214000000    -0.990000000
O    -4.248000000     3.184000000    -2.433000000
H    -5.030000000     2.721000000    -2.131000000
H    -3.753000000     3.364000000    -1.635000000
O    -1.574000000     2.168000000     4.060000000
H    -1.930000000     3.050000000     4.173000000
H    -2.320000000     1.644000000     3.768000000
O    -0.449000000     3.707000000    -3.510000000
H    -0.439000000     4.664000000    -3.527000000
H    -1.258000000     3.468000000    -3.964000000
O     0.841000000    -2.632000000     7.584000000
H     1.066000000    -2.252000000     8.433000000
H     1.649000000    -3.051000000     7.287000000
O     6.876000000    -2.571000000     0.346000000
H     6.373000000    -3.290000000     0.730000000
H     6.510000000    -1.782000000     0.746000000
O     3.384000000    -2.650000000     0.160000000
H     3.797000000    -1.812000000     0.365000000
H     2.461000000    -2.522000000     0.381000000
O     0.455000000    -4.620000000     5.446000000
H     0.773000000    -4.523000000     6.344000000
H    -0.356000000    -4.111000000     5.424000000
O    -0.363000000    -0.630000000     4.424000000
H     0.380000000    -0.765000000     3.836000000
H    -0.043000000    -0.004000000     5.074000000
O     4.196000000     0.279000000    -0.143000000
H     5.070000000    -0.020000000     0.106000000
H     3.767000000     0.484000000     0.687000000
O     2.018000000     2.500000000    -3.169000000
H     1.140000000     2.882000000    -3.183000000
H     2.519000000     3.028000000    -3.790000000
O     0.792000000    -2.320000000    -2.743000000
H     1.395000000    -2.471000000    -3.471000000
H     1.252000000    -1.699000000    -2.178000000
O     0.698000000     3.620000000     5.317000000
H     0.533000000     3.594000000     6.260000000
H     0.175000000     2.900000000     4.963000000
O     4.252000000     2.900000000    -0.813000000
H     3.665000000     3.173000000    -1.518000000
H     4.386000000     1.964000000    -0.962000000
O     7.285000000     2.905000000     1.949000000
H     7.947000000     3.572000000     2.131000000
H     6.995000000     2.613000000     2.813000000
O    -4.244000000     0.989000000    -6.786000000
H    -3.813000000     0.423000000    -7.426000000
H    -4.015000000     0.609000000    -5.938000000
O    -4.025000000     1.409000000     1.624000000
H    -4.685000000     1.654000000     2.273000000
H    -3.931000000     0.461000000     1.725000000
O    -3.062000000    -4.692000000    -2.306000000
H    -2.265000000    -4.785000000    -1.785000000
H    -2.831000000    -5.050000000    -3.163000000
O     4.261000000     2.783000000     1.860000000
H     3.937000000     1.887000000     1.957000000
H     4.277000000     2.931000000     0.915000000
O    -5.631000000    -3.798000000    -2.840000000
H    -4.778000000    -4.229000000    -2.776000000
H    -6.266000000    -4.506000000    -2.727000000
O     3.992000000     5.577000000     2.009000000
H     3.312000000     5.696000000     2.673000000
H     4.181000000     4.639000000     2.025000000
O    -2.597000000    -3.325000000     5.570000000
H    -2.375000000    -2.394000000     5.607000000
H    -2.689000000    -3.512000000     4.636000000
O    -6.107000000    -0.116000000    -3.734000000
H    -6.023000000    -0.035000000    -2.784000000
H    -5.810000000     0.729000000    -4.073000000
O     4.018000000    -1.170000000     4.953000000
H     3.447000000    -1.124000000     4.186000000
H     3.890000000    -0.332000000     5.397000000
O     0.510000000    -0.551000000    -7.479000000
H     0.575000000    -0.304000000    -6.556000000
H     0.975000000     0.144000000    -7.946000000
O    -4.438000000    -1.538000000     2.895000000
H    -4.556000000    -2.332000000     2.374000000
H    -5.275000000    -1.420000000     3.344000000
O     5.728000000     2.095000000     3.976000000
H     5.263000000     2.214000000     3.148000000
H     5.034000000     2.029000000     4.633000000
O     4.904000000    -4.300000000     2.215000000
H     4.008000000    -4.032000000     2.012000000
H     5.117000000    -3.831000000     3.022000000
O    -0.297000000     6.193000000    -1.137000000
H    -0.625000000     5.294000000    -1.150000000
H     0.526000000     6.140000000    -0.651000000
O     2.171000000     5.933000000     0.023000000
H     2.890000000     5.682000000     0.602000000
H     2.602000000     6.266000000    -0.764000000
O     0.117000000    -0.025000000     7.117000000
H     0.345000000    -0.953000000     7.070000000
H    -0.751000000    -0.011000000     7.519000000
O     2.561000000    -0.104000000    -2.525000000
H     2.303000000     0.781000000    -2.780000000
H     2.925000000    -0.004000000    -1.645000000
O     6.123000000    -0.260000000     1.975000000
H     5.471000000     0.192000000     2.510000000
H     6.894000000    -0.322000000     2.539000000
O    -2.590000000     3.174000000    -0.048000000
H    -1.753000000     2.890000000    -0.416000000
H    -2.810000000     2.500000000     0.595000000
O     6.072000000    -2.881000000     4.323000000
H     5.338000000    -2.274000000     4.419000000
H     6.750000000    -2.368000000     3.883000000
