144
-2841.78179
O     2.364000000     2.577000000     5.568000000
H     2.183000000     2.631000000     6.506000000
H     2.261000000     1.649000000     5.357000000
O     2.187000000    -6.833000000     3.014000000
H     3.142000000    -6.890000000     3.003000000
H     2.000000000    -6.045000000     3.526000000
O     1.976000000    -4.334000000     4.225000000
H     2.758000000    -4.076000000     4.713000000
H     1.895000000    -3.675000000     3.535000000
O     0.930000000     5.620000000     1.080000000
H     1.785000000     5.953000000     0.806000000
H     0.970000000     4.681000000     0.900000000
O     4.743000000    -6.036000000     1.204000000
H     4.173000000    -6.563000000     0.644000000
H     4.774000000    -6.515000000     2.033000000
O    -5.356000000    -1.786000000    -1.294000000
H    -5.437000000    -2.563000000    -1.847000000
H    -4.435000000    -1.772000000    -1.034000000
O     8.144000000    -1.269000000     0.819000000
H     8.448000000    -0.425000000     0.485000000
H     7.233000000    -1.327000000     0.530000000
O     2.722000000    -3.167000000    -3.308000000
H     2.214000000    -3.859000000    -3.730000000
H     2.991000000    -3.543000000    -2.470000000
O    -2.252000000     6.545000000    -0.777000000
H    -2.214000000     7.006000000     0.061000000
H    -3.109000000     6.118000000    -0.776000000
O    -1.833000000     0.764000000    -5.166000000
H    -2.628000000     1.293000000    -5.101000000
H    -2.095000000    -0.101000000    -4.850000000
O     0.129000000    -2.131000000    -3.812000000
H     0.058000000    -2.819000000    -4.474000000
H     1.006000000    -2.241000000    -3.444000000
O    -5.316000000     0.970000000    -1.371000000
H    -4.690000000     1.288000000    -0.720000000
H    -5.503000000     0.070000000    -1.103000000
O     0.468000000    -4.437000000    -1.144000000
H     0.637000000    -5.199000000    -0.590000000
H     1.337000000    -4.114000000    -1.380000000
O    -0.182000000     5.773000000    -2.032000000
H    -1.017000000     5.880000000    -1.576000000
H     0.447000000     5.582000000    -1.336000000
O    -0.565000000     1.298000000     5.551000000
H    -0.335000000     1.650000000     6.411000000
H    -0.262000000     0.390000000     5.575000000
O     4.468000000    -3.543000000     5.316000000
H     4.675000000    -3.610000000     4.384000000
H     5.194000000    -3.985000000     5.755000000
O     0.587000000     1.722000000    -4.996000000
H    -0.298000000     1.540000000    -5.314000000
H     0.476000000     2.450000000    -4.384000000
O    -0.336000000    -5.144000000     5.814000000
H     0.314000000    -4.822000000     5.190000000
H    -0.123000000    -4.698000000     6.634000000
O     4.791000000    -2.044000000    -4.441000000
H     4.765000000    -2.281000000    -5.368000000
H     3.931000000    -2.298000000    -4.105000000
O    -4.981000000     2.710000000     3.298000000
H    -5.779000000     2.727000000     3.827000000
H    -4.459000000     2.002000000     3.675000000
O    -4.065000000     2.413000000    -4.290000000
H    -4.253000000     1.504000000    -4.056000000
H    -4.924000000     2.833000000    -4.329000000
O    -2.303000000     4.259000000    -5.176000000
H    -2.812000000     3.575000000    -4.742000000
H    -1.460000000     4.255000000    -4.721000000
O     5.278000000    -1.464000000     0.051000000
H     4.510000000    -1.943000000     0.364000000
H     4.974000000    -0.561000000    -0.045000000
O     4.745000000     0.664000000    -3.645000000
H     4.450000000    -0.244000000    -3.569000000
H     4.972000000     0.765000000    -4.569000000
O    -2.749000000    -1.408000000    -0.286000000
H    -2.647000000    -2.038000000     0.428000000
H    -2.346000000    -0.605000000     0.043000000
O    -5.074000000    -0.113000000    -3.844000000
H    -5.556000000     0.092000000    -3.043000000
H    -4.329000000    -0.635000000    -3.548000000
O     3.567000000     2.841000000    -2.160000000
H     3.806000000     3.747000000    -2.356000000
H     3.802000000     2.355000000    -2.950000000
O     4.372000000     1.028000000    -0.287000000
H     4.293000000     1.660000000     0.428000000
H     3.953000000     1.456000000    -1.033000000
O     2.524000000    -0.190000000     4.386000000
H     3.435000000    -0.419000000     4.201000000
H     2.012000000    -0.838000000     3.902000000
O     1.532000000     2.866000000    -0.238000000
H     2.226000000     3.149000000    -0.834000000
H     1.121000000     2.125000000    -0.683000000
O     3.432000000     3.430000000     1.877000000
H     2.864000000     2.833000000     1.390000000
H     4.017000000     3.798000000     1.214000000
O     0.264000000    -1.285000000     6.590000000
H     1.012000000    -1.562000000     6.060000000
H     0.498000000    -1.535000000     7.484000000
O     3.250000000    -1.756000000     6.692000000
H     3.722000000    -2.470000000     6.264000000
H     3.115000000    -1.109000000     6.000000000
O    -2.401000000    -1.209000000    -3.035000000
H    -2.462000000    -1.061000000    -2.091000000
H    -1.519000000    -1.557000000    -3.166000000
O    -4.553000000    -0.829000000     2.839000000
H    -4.498000000    -1.766000000     2.651000000
H    -5.269000000    -0.516000000     2.287000000
O    -3.833000000     2.294000000     0.768000000
H    -3.032000000     2.805000000     0.881000000
H    -4.406000000     2.589000000     1.476000000
O     0.338000000    -1.024000000    -7.345000000
H     0.670000000    -0.566000000    -6.572000000
H     0.920000000    -0.749000000    -8.054000000
O     0.550000000     4.447000000    -4.152000000
H     0.375000000     4.965000000    -3.367000000
H     1.072000000     5.025000000    -4.709000000
O     3.131000000    -4.115000000    -0.854000000
H     3.272000000    -3.471000000    -0.159000000
H     3.896000000    -4.689000000    -0.808000000
O    -1.675000000     4.188000000     1.567000000
H    -1.567000000     3.821000000     2.445000000
H    -1.027000000     4.892000000     1.520000000
O    -4.887000000     4.792000000    -0.987000000
H    -5.589000000     4.372000000    -1.483000000
H    -4.386000000     4.064000000    -0.619000000
O    -3.704000000     0.840000000     5.126000000
H    -3.732000000     0.293000000     4.342000000
H    -2.946000000     0.520000000     5.615000000
O    -6.984000000     3.177000000    -2.043000000
H    -6.442000000     2.557000000    -1.554000000
H    -7.751000000     2.669000000    -2.306000000
O    -1.516000000    -3.388000000     1.013000000
H    -0.817000000    -2.857000000     1.394000000
H    -1.125000000    -3.769000000     0.227000000
O     0.498000000    -6.053000000     0.931000000
H     0.466000000    -6.991000000     0.742000000
H     1.249000000    -5.952000000     1.515000000
O     2.920000000     1.551000000    -6.289000000
H     2.158000000     1.763000000    -5.749000000
H     3.663000000     1.914000000    -5.808000000
O     4.630000000    -3.733000000     2.526000000
H     4.054000000    -3.065000000     2.153000000
H     4.660000000    -4.422000000     1.862000000
O    -0.936000000     3.652000000     4.096000000
H    -0.963000000     2.880000000     4.660000000
H    -0.308000000     4.237000000     4.520000000
