144
-2786.59368
O    -2.433000000     1.492000000     4.362000000
H    -3.059000000     1.657000000     3.657000000
H    -1.585000000     1.438000000     3.921000000
O     5.397000000    -1.232000000     5.082000000
H     5.016000000    -1.596000000     5.881000000
H     6.126000000    -0.693000000     5.388000000
O     1.495000000    -0.950000000    -7.596000000
H     1.606000000    -0.183000000    -8.158000000
H     2.134000000    -0.825000000    -6.893000000
O    -4.001000000    -1.192000000    -1.747000000
H    -4.947000000    -1.331000000    -1.693000000
H    -3.870000000    -0.771000000    -2.597000000
O     1.405000000    -5.772000000    -1.098000000
H     1.834000000    -6.351000000    -0.468000000
H     2.096000000    -5.174000000    -1.384000000
O    -0.542000000     0.011000000     6.446000000
H    -1.425000000     0.379000000     6.455000000
H    -0.152000000     0.343000000     5.637000000
O    -2.369000000    -3.307000000    -3.046000000
H    -1.987000000    -2.452000000    -3.241000000
H    -3.250000000    -3.109000000    -2.727000000
O    -0.420000000     4.348000000     2.118000000
H    -1.373000000     4.397000000     2.050000000
H    -0.107000000     5.142000000     1.685000000
O    -3.369000000     3.307000000    -1.242000000
H    -3.434000000     3.987000000    -0.571000000
H    -3.742000000     3.709000000    -2.027000000
O    -1.746000000     6.392000000    -1.420000000
H    -2.064000000     5.811000000    -0.729000000
H    -2.037000000     7.264000000    -1.152000000
O     2.092000000     3.016000000     1.648000000
H     1.254000000     3.460000000     1.772000000
H     2.163000000     2.897000000     0.701000000
O    -3.314000000     3.495000000    -4.839000000
H    -2.577000000     3.082000000    -5.289000000
H    -3.306000000     4.401000000    -5.146000000
O     3.629000000     1.496000000     4.014000000
H     2.891000000     1.405000000     3.411000000
H     3.750000000     0.619000000     4.378000000
O    -4.308000000    -2.149000000    -4.968000000
H    -3.859000000    -1.318000000    -5.123000000
H    -4.604000000    -2.428000000    -5.835000000
O    -1.777000000    -2.310000000     0.549000000
H    -1.158000000    -1.628000000     0.288000000
H    -2.635000000    -1.956000000     0.314000000
O    -2.952000000     5.304000000     0.677000000
H    -3.687000000     5.891000000     0.502000000
H    -2.734000000     5.460000000     1.595000000
O     3.442000000    -4.230000000    -1.802000000
H     3.508000000    -3.386000000    -1.356000000
H     4.350000000    -4.488000000    -1.962000000
O     1.475000000     4.561000000    -1.122000000
H     0.686000000     4.461000000    -1.655000000
H     2.013000000     3.801000000    -1.346000000
O     0.432000000     2.574000000     7.224000000
H     0.441000000     1.633000000     7.053000000
H     0.563000000     2.976000000     6.365000000
O     3.201000000     1.408000000    -3.207000000
H     2.606000000     1.219000000    -3.933000000
H     3.949000000     1.841000000    -3.618000000
O     1.542000000     2.654000000    -5.801000000
H     1.682000000     3.583000000    -5.620000000
H     2.311000000     2.390000000    -6.306000000
O     4.005000000    -1.720000000     2.693000000
H     4.477000000    -1.574000000     3.513000000
H     3.161000000    -1.287000000     2.823000000
O     4.804000000    -2.245000000    -4.495000000
H     4.735000000    -2.294000000    -3.542000000
H     5.638000000    -2.670000000    -4.696000000
O     4.915000000     3.598000000     2.725000000
H     4.350000000     2.906000000     3.068000000
H     4.799000000     3.554000000     1.776000000
O     4.155000000    -4.524000000     1.941000000
H     3.735000000    -3.678000000     1.790000000
H     4.189000000    -4.608000000     2.894000000
O    -0.373000000    -5.288000000     3.743000000
H    -0.689000000    -5.131000000     2.853000000
H     0.069000000    -4.475000000     3.988000000
O    -0.468000000     4.363000000    -2.949000000
H    -1.055000000     3.822000000    -3.478000000
H    -1.039000000     5.024000000    -2.557000000
O    -0.295000000    -4.922000000     0.990000000
H     0.473000000    -5.130000000     0.458000000
H    -0.663000000    -4.137000000     0.582000000
O    -1.388000000    -2.233000000     3.543000000
H    -0.728000000    -1.577000000     3.766000000
H    -1.429000000    -2.216000000     2.587000000
O    -2.119000000    -0.361000000    -5.627000000
H    -2.164000000     0.282000000    -6.333000000
H    -1.284000000    -0.809000000    -5.763000000
O     0.343000000     3.471000000     4.477000000
H     0.166000000     4.161000000     3.838000000
H     0.391000000     2.669000000     3.957000000
O     2.363000000     1.965000000    -0.837000000
H     1.563000000     1.455000000    -0.709000000
H     2.640000000     1.755000000    -1.729000000
O     2.232000000    -1.068000000     6.240000000
H     1.904000000    -0.740000000     5.403000000
H     1.451000000    -1.376000000     6.700000000
O     2.544000000    -3.390000000     7.710000000
H     2.622000000    -2.770000000     6.985000000
H     2.137000000    -4.164000000     7.321000000
O    -1.331000000    -2.227000000     8.010000000
H    -1.005000000    -1.552000000     7.414000000
H    -1.441000000    -1.775000000     8.846000000
O    -1.220000000     2.702000000    -6.480000000
H    -1.232000000     1.957000000    -7.082000000
H    -0.290000000     2.872000000    -6.328000000
O     3.693000000    -0.580000000    -6.189000000
H     4.097000000    -0.950000000    -6.974000000
H     3.962000000    -1.167000000    -5.482000000
O    -3.960000000     0.843000000    -4.037000000
H    -3.733000000     1.771000000    -3.973000000
H    -3.386000000     0.502000000    -4.722000000
O     5.973000000    -2.094000000     0.932000000
H     5.198000000    -1.868000000     1.446000000
H     6.414000000    -1.257000000     0.784000000
O    -6.635000000     1.754000000    -0.159000000
H    -5.733000000     1.432000000    -0.155000000
H    -6.600000000     2.571000000     0.339000000
O    -1.850000000    -4.278000000    -5.519000000
H    -2.267000000    -4.059000000    -4.685000000
H    -2.500000000    -4.043000000    -6.181000000
O    -2.134000000     3.672000000     6.076000000
H    -2.373000000     2.812000000     5.732000000
H    -1.453000000     3.987000000     5.480000000
O    -6.607000000     1.002000000    -3.630000000
H    -6.648000000     0.269000000    -3.017000000
H    -5.724000000     0.959000000    -3.997000000
O     4.109000000    -1.320000000    -1.536000000
H     4.887000000    -1.299000000    -0.979000000
H     3.982000000    -0.410000000    -1.805000000
O    -4.213000000     2.064000000     2.421000000
H    -4.206000000     1.546000000     1.616000000
H    -4.828000000     2.776000000     2.243000000
O     1.376000000    -3.057000000     3.985000000
H     2.199000000    -3.459000000     4.263000000
H     1.557000000    -2.117000000     3.988000000
O    -1.657000000    -5.820000000    -2.013000000
H    -1.725000000    -4.902000000    -2.274000000
H    -0.855000000    -5.862000000    -1.491000000
O    -4.233000000     0.896000000    -0.075000000
H    -3.843000000     1.676000000    -0.471000000
H    -3.989000000     0.181000000    -0.663000000
