144
-2790.47307
O    -3.164000000     3.384000000     2.200000000
H    -3.746000000     2.989000000     2.849000000
H    -2.324000000     2.946000000     2.334000000
O     4.290000000     0.575000000     4.703000000
H     3.509000000     0.948000000     5.111000000
H     4.673000000     0.021000000     5.383000000
O     3.865000000    -5.976000000     1.814000000
H     4.385000000    -5.441000000     1.215000000
H     3.669000000    -5.392000000     2.548000000
O    -4.161000000    -0.568000000    -2.803000000
H    -4.888000000    -0.840000000    -3.363000000
H    -3.408000000    -0.524000000    -3.393000000
O     2.810000000    -6.339000000    -1.605000000
H     3.000000000    -7.269000000    -1.477000000
H     3.442000000    -5.886000000    -1.047000000
O    -2.732000000     0.907000000     6.317000000
H    -3.009000000     0.004000000     6.470000000
H    -2.600000000     0.960000000     5.371000000
O    -4.063000000    -3.523000000    -2.848000000
H    -3.504000000    -3.270000000    -3.583000000
H    -3.632000000    -3.148000000    -2.080000000
O    -3.090000000    -2.285000000     4.044000000
H    -3.108000000    -1.331000000     4.125000000
H    -2.159000000    -2.503000000     3.984000000
O    -2.722000000     5.652000000     0.345000000
H    -2.827000000     6.213000000     1.113000000
H    -2.882000000     4.766000000     0.671000000
O    -2.383000000    -5.241000000    -0.853000000
H    -1.550000000    -5.475000000    -1.262000000
H    -2.192000000    -4.445000000    -0.357000000
O     2.117000000    -4.721000000    -4.114000000
H     2.120000000    -5.513000000    -4.652000000
H     2.511000000    -4.993000000    -3.286000000
O    -0.589000000     6.792000000     2.615000000
H    -0.874000000     7.698000000     2.493000000
H    -0.389000000     6.483000000     1.731000000
O     3.414000000     1.766000000    -0.690000000
H     3.651000000     1.653000000     0.231000000
H     3.534000000     0.898000000    -1.075000000
O    -4.116000000    -2.042000000    -0.465000000
H    -4.843000000    -2.655000000    -0.357000000
H    -4.326000000    -1.560000000    -1.265000000
O     0.034000000     2.380000000     7.939000000
H     0.649000000     1.667000000     7.766000000
H    -0.250000000     2.667000000     7.071000000
O     1.435000000     4.786000000     6.113000000
H     0.660000000     4.330000000     5.785000000
H     1.449000000     5.611000000     5.629000000
O     4.986000000    -4.553000000    -0.248000000
H     5.216000000    -3.955000000    -0.959000000
H     5.781000000    -4.611000000     0.282000000
O    -2.318000000    -2.191000000    -4.933000000
H    -2.327000000    -2.011000000    -5.873000000
H    -1.397000000    -2.360000000    -4.731000000
O    -1.003000000     3.041000000     5.391000000
H    -1.875000000     2.698000000     5.588000000
H    -0.804000000     2.703000000     4.518000000
O    -0.408000000     3.922000000    -2.247000000
H    -1.044000000     3.286000000    -2.576000000
H    -0.427000000     3.810000000    -1.297000000
O     1.178000000     4.657000000    -4.507000000
H     0.614000000     4.977000000    -5.211000000
H     0.595000000     4.572000000    -3.753000000
O     3.566000000     1.221000000     2.196000000
H     3.782000000     0.969000000     3.093000000
H     2.886000000     0.602000000     1.929000000
O     0.439000000    -2.665000000     7.518000000
H     0.629000000    -2.354000000     6.633000000
H     1.284000000    -2.969000000     7.851000000
O     3.836000000    -1.716000000    -4.764000000
H     3.979000000    -2.420000000    -5.396000000
H     2.922000000    -1.815000000    -4.499000000
O     3.394000000     3.616000000    -5.660000000
H     3.246000000     2.671000000    -5.620000000
H     2.642000000     3.996000000    -5.206000000
O     3.320000000     3.884000000     3.684000000
H     2.419000000     4.072000000     3.422000000
H     3.497000000     3.014000000     3.326000000
O     3.771000000    -3.784000000     3.434000000
H     4.232000000    -3.115000000     2.928000000
H     3.656000000    -3.392000000     4.300000000
O    -0.409000000    -3.298000000     4.228000000
H    -0.246000000    -3.421000000     3.293000000
H     0.225000000    -2.632000000     4.496000000
O    -0.678000000    -5.093000000     1.962000000
H    -1.465000000    -5.621000000     2.103000000
H    -0.996000000    -4.301000000     1.528000000
O    -0.468000000     6.937000000    -0.220000000
H    -0.896000000     7.618000000    -0.740000000
H    -1.182000000     6.360000000     0.052000000
O    -1.723000000    -2.904000000     0.774000000
H    -1.070000000    -2.232000000     0.580000000
H    -2.562000000    -2.483000000     0.586000000
O    -3.144000000     0.564000000     3.613000000
H    -2.478000000     1.144000000     3.244000000
H    -3.745000000     0.397000000     2.886000000
O     0.776000000     4.247000000     2.967000000
H     0.260000000     5.044000000     2.837000000
H     0.173000000     3.535000000     2.755000000
O     1.894000000     4.128000000    -0.727000000
H     2.402000000     3.323000000    -0.824000000
H     1.555000000     4.305000000    -1.604000000
O     2.093000000     1.791000000     5.619000000
H     2.467000000     2.666000000     5.512000000
H     1.442000000     1.722000000     4.920000000
O     3.058000000     0.487000000     7.747000000
H     3.685000000     1.141000000     8.057000000
H     2.580000000     0.928000000     7.045000000
O     1.876000000    -1.418000000    -6.758000000
H     1.482000000    -0.822000000    -7.395000000
H     1.147000000    -1.959000000    -6.453000000
O     0.253000000    -3.428000000    -5.611000000
H    -0.323000000    -4.096000000    -5.982000000
H     0.949000000    -3.924000000    -5.179000000
O     3.730000000     0.949000000    -5.289000000
H     3.623000000     0.032000000    -5.035000000
H     4.360000000     0.926000000    -6.009000000
O    -3.195000000     2.181000000    -4.329000000
H    -2.791000000     2.927000000    -4.773000000
H    -3.804000000     1.820000000    -4.973000000
O     5.361000000    -1.386000000     2.033000000
H     5.732000000    -0.522000000     2.208000000
H     5.086000000    -1.347000000     1.117000000
O    -2.385000000     5.876000000     4.848000000
H    -1.942000000     6.515000000     4.290000000
H    -1.963000000     5.043000000     4.639000000
O    -1.663000000    -6.498000000    -3.904000000
H    -1.074000000    -6.284000000    -3.182000000
H    -1.814000000    -7.440000000    -3.819000000
O     4.336000000    -0.822000000    -1.385000000
H     5.198000000    -0.433000000    -1.239000000
H     4.456000000    -1.391000000    -2.145000000
O    -4.619000000    -0.139000000     1.336000000
H    -4.492000000    -0.966000000     0.871000000
H    -4.894000000     0.478000000     0.658000000
O     1.349000000    -1.350000000     5.158000000
H     2.291000000    -1.515000000     5.118000000
H     1.256000000    -0.435000000     4.892000000
O    -0.180000000    -6.416000000    -1.637000000
H     0.273000000    -7.211000000    -1.358000000
H     0.498000000    -5.740000000    -1.632000000
O    -4.697000000     2.004000000    -2.055000000
H    -4.049000000     2.171000000    -2.739000000
H    -4.908000000     1.075000000    -2.145000000
