144
-2812.91333
O    -3.058000000     0.875000000     5.734000000
H    -2.441000000     0.429000000     6.314000000
H    -2.813000000     0.586000000     4.855000000
O    -1.857000000     2.932000000    -4.650000000
H    -1.770000000     2.038000000    -4.981000000
H    -2.244000000     2.829000000    -3.781000000
O    -4.473000000     0.113000000    -2.636000000
H    -4.016000000     0.954000000    -2.632000000
H    -3.831000000    -0.508000000    -2.981000000
O     6.468000000     1.158000000     2.521000000
H     5.892000000     1.023000000     1.768000000
H     6.282000000     0.418000000     3.099000000
O    -1.575000000    -3.302000000     2.154000000
H    -2.078000000    -4.089000000     2.363000000
H    -1.565000000    -2.800000000     2.969000000
O    -6.842000000    -0.061000000     5.454000000
H    -6.166000000    -0.296000000     4.818000000
H    -7.655000000    -0.060000000     4.949000000
O    -2.911000000     2.789000000     2.352000000
H    -2.680000000     1.874000000     2.514000000
H    -3.867000000     2.807000000     2.408000000
O    -3.419000000    -2.279000000     0.410000000
H    -2.492000000    -2.331000000     0.643000000
H    -3.882000000    -2.496000000     1.219000000
O    -0.238000000     4.715000000    -3.097000000
H    -0.734000000     3.900000000    -3.179000000
H    -0.742000000     5.240000000    -2.475000000
O     4.338000000    -1.896000000    -3.668000000
H     3.442000000    -2.228000000    -3.728000000
H     4.523000000    -1.874000000    -2.729000000
O    -4.320000000     5.371000000     2.709000000
H    -3.730000000     4.635000000     2.871000000
H    -4.396000000     5.808000000     3.557000000
O     2.620000000     5.295000000    -2.366000000
H     2.826000000     6.092000000    -2.854000000
H     1.773000000     5.015000000    -2.713000000
O    -5.281000000    -0.278000000     0.071000000
H    -4.655000000    -0.928000000     0.388000000
H    -4.876000000     0.080000000    -0.719000000
O    -3.660000000    -2.223000000    -4.084000000
H    -3.653000000    -3.155000000    -4.305000000
H    -3.679000000    -1.776000000    -4.930000000
O     3.443000000    -2.769000000     0.002000000
H     4.229000000    -2.331000000    -0.323000000
H     3.774000000    -3.506000000     0.515000000
O     2.348000000     2.766000000     2.256000000
H     1.752000000     3.300000000     1.732000000
H     1.843000000     2.538000000     3.036000000
O    -1.517000000     0.316000000    -5.119000000
H    -2.226000000    -0.197000000    -5.508000000
H    -0.790000000    -0.302000000    -5.041000000
O    -0.485000000     3.526000000     3.073000000
H    -0.316000000     2.932000000     3.805000000
H    -1.435000000     3.495000000     2.954000000
O     4.434000000     0.898000000     0.767000000
H     3.743000000     1.452000000     1.131000000
H     4.489000000     1.158000000    -0.153000000
O     0.614000000     3.125000000     0.039000000
H     0.298000000     2.222000000     0.065000000
H     1.475000000     3.066000000    -0.376000000
O    -3.454000000     3.842000000     5.296000000
H    -4.135000000     3.818000000     5.968000000
H    -3.287000000     2.922000000     5.091000000
O     3.935000000    -2.534000000     5.085000000
H     4.488000000    -1.758000000     5.173000000
H     3.659000000    -2.529000000     4.168000000
O     3.902000000    -1.179000000     2.793000000
H     4.849000000    -1.312000000     2.769000000
H     3.669000000    -0.951000000     1.893000000
O    -1.489000000    -1.482000000     6.091000000
H    -0.717000000    -1.113000000     6.521000000
H    -1.330000000    -1.348000000     5.157000000
O    -4.695000000    -3.103000000     2.885000000
H    -5.591000000    -3.439000000     2.857000000
H    -4.230000000    -3.708000000     3.462000000
O    -1.624000000    -2.653000000    -2.246000000
H    -1.926000000    -2.405000000    -3.119000000
H    -2.408000000    -2.607000000    -1.699000000
O     1.313000000    -2.597000000     3.613000000
H     1.813000000    -2.276000000     2.862000000
H     0.661000000    -1.916000000     3.777000000
O    -7.172000000     1.726000000     0.595000000
H    -6.527000000     1.382000000    -0.023000000
H    -6.929000000     1.339000000     1.436000000
O     0.046000000     1.837000000     5.194000000
H     0.473000000     1.531000000     5.994000000
H    -0.010000000     1.058000000     4.640000000
O    -0.842000000    -4.396000000    -4.743000000
H    -0.957000000    -4.751000000    -3.862000000
H    -1.655000000    -4.616000000    -5.198000000
O     1.907000000    -3.324000000    -2.457000000
H     2.363000000    -3.248000000    -1.619000000
H     1.078000000    -2.866000000    -2.322000000
O     3.747000000     1.094000000    -3.504000000
H     4.664000000     1.298000000    -3.691000000
H     3.706000000     0.138000000    -3.523000000
O    -0.118000000     4.470000000     6.449000000
H    -0.136000000     3.676000000     5.915000000
H    -0.685000000     5.085000000     5.984000000
O    -1.814000000     4.203000000    -0.128000000
H    -2.191000000     3.507000000     0.410000000
H    -0.868000000     4.093000000    -0.033000000
O    -0.350000000    -4.259000000    -0.452000000
H    -0.318000000    -3.846000000     0.411000000
H    -0.709000000    -3.583000000    -1.027000000
O    -1.129000000     0.871000000    -7.885000000
H    -0.463000000     0.185000000    -7.925000000
H    -1.496000000     0.797000000    -7.004000000
O     1.562000000    -5.431000000     3.986000000
H     1.623000000    -4.498000000     3.780000000
H     2.470000000    -5.734000000     3.999000000
O     0.777000000    -3.562000000     6.411000000
H     1.531000000    -4.123000000     6.228000000
H     0.876000000    -2.823000000     5.810000000
O    -0.203000000    -2.003000000    -5.458000000
H     0.611000000    -2.122000000    -5.948000000
H    -0.361000000    -2.853000000    -5.048000000
O    -3.589000000    -3.079000000     6.848000000
H    -2.860000000    -2.567000000     6.497000000
H    -3.443000000    -3.085000000     7.794000000
O    -5.413000000     2.262000000     3.250000000
H    -5.397000000     1.358000000     3.564000000
H    -6.250000000     2.609000000     3.560000000
O     2.817000000     2.709000000    -1.282000000
H     2.794000000     3.514000000    -1.800000000
H     2.984000000     2.017000000    -1.923000000
O     3.766000000     3.159000000    -5.510000000
H     3.547000000     2.779000000    -6.361000000
H     3.665000000     2.436000000    -4.891000000
O     2.213000000    -4.972000000    -4.949000000
H     1.713000000    -4.466000000    -5.589000000
H     2.088000000    -4.504000000    -4.123000000
O    -4.713000000    -0.503000000     3.631000000
H    -4.659000000    -1.413000000     3.339000000
H    -3.914000000    -0.096000000     3.297000000
O     0.720000000    -0.185000000     7.077000000
H     1.636000000    -0.063000000     6.827000000
H     0.755000000    -0.429000000     8.002000000
O     5.854000000    -1.647000000    -1.382000000
H     6.358000000    -1.894000000    -0.607000000
H     6.516000000    -1.418000000    -2.035000000
O    -3.073000000     2.571000000    -2.308000000
H    -3.965000000     2.901000000    -2.201000000
H    -2.572000000     3.004000000    -1.616000000
