161
-3022.44519
C    -0.679000000     1.140000000    -0.611000000
H    -1.247000000     1.976000000    -1.011000000
C    -1.305000000    -0.020000000    -0.146000000
H    -2.388000000    -0.091000000    -0.213000000
C    -0.589000000    -1.041000000     0.489000000
C    -1.238000000    -2.270000000     1.085000000
H    -0.467000000    -3.040000000     1.156000000
H    -1.604000000    -2.124000000     2.104000000
H    -2.057000000    -2.675000000     0.488000000
C     0.821000000    -0.869000000     0.420000000
H     1.456000000    -1.616000000     0.889000000
C     1.455000000     0.307000000    -0.022000000
H     2.534000000     0.434000000    -0.018000000
C     0.699000000     1.327000000    -0.522000000
C     1.350000000     2.565000000    -1.172000000
O     2.473000000     2.368000000    -1.646000000
O     0.792000000     3.636000000    -1.263000000
O     1.350000000     2.154000000     4.389000000
H     0.590000000     2.247000000     4.964000000
H     1.415000000     1.213000000     4.228000000
O    -0.865000000     7.857000000    -0.814000000
H    -0.027000000     7.476000000    -1.077000000
H    -1.492000000     7.139000000    -0.905000000
O     2.800000000     3.311000000    -6.432000000
H     2.145000000     2.761000000    -6.004000000
H     3.621000000     2.830000000    -6.329000000
O     1.884000000     1.757000000    -4.405000000
H     1.654000000     0.886000000    -4.726000000
H     2.251000000     1.603000000    -3.535000000
O    -1.306000000     5.207000000    -1.045000000
H    -1.177000000     5.272000000    -0.098000000
H    -0.555000000     4.699000000    -1.354000000
O    -2.670000000    -7.002000000     2.574000000
H    -2.339000000    -6.157000000     2.878000000
H    -2.161000000    -7.648000000     3.064000000
O     3.856000000     3.067000000     0.736000000
H     4.375000000     3.827000000     0.474000000
H     3.486000000     2.735000000    -0.083000000
O    -2.674000000    -0.073000000    -5.193000000
H    -2.972000000    -0.538000000    -4.412000000
H    -1.970000000     0.495000000    -4.879000000
O     1.021000000    -3.550000000    -1.386000000
H     0.133000000    -3.474000000    -1.734000000
H     1.362000000    -2.656000000    -1.399000000
O    -1.780000000    -5.067000000     4.069000000
H    -1.349000000    -5.685000000     4.659000000
H    -1.353000000    -4.229000000     4.245000000
O    -1.123000000    -0.468000000     6.442000000
H    -1.733000000    -0.879000000     5.831000000
H    -0.836000000     0.329000000     5.996000000
O     5.143000000     1.460000000    -5.218000000
H     5.848000000     2.107000000    -5.176000000
H     4.950000000     1.258000000    -4.302000000
O    -2.639000000     5.024000000    -4.835000000
H    -1.788000000     4.618000000    -4.670000000
H    -2.791000000     5.581000000    -4.072000000
O    -3.124000000    -7.117000000    -0.155000000
H    -3.954000000    -7.593000000    -0.133000000
H    -2.900000000    -6.982000000     0.765000000
O     3.728000000     3.043000000     3.680000000
H     2.811000000     2.785000000     3.776000000
H     3.893000000     2.994000000     2.738000000
O     0.577000000     4.348000000    -3.668000000
H     0.635000000     4.008000000    -2.775000000
H     0.426000000     3.573000000    -4.210000000
O     1.254000000     5.849000000     0.736000000
H     1.033000000     5.039000000     0.275000000
H     2.211000000     5.878000000     0.722000000
O     4.878000000    -1.999000000     3.273000000
H     4.889000000    -2.944000000     3.427000000
H     4.656000000    -1.910000000     2.346000000
O    -5.542000000     1.723000000     1.815000000
H    -6.092000000     0.987000000     2.083000000
H    -5.380000000     1.573000000     0.883000000
O    -4.690000000    -2.261000000     2.406000000
H    -5.339000000    -1.598000000     2.167000000
H    -3.889000000    -1.763000000     2.571000000
O     4.607000000     1.137000000    -2.566000000
H     3.872000000     1.649000000    -2.230000000
H     5.349000000     1.395000000    -2.018000000
O     6.315000000     4.722000000    -3.350000000
H     6.312000000     5.670000000    -3.478000000
H     5.396000000     4.466000000    -3.429000000
O    -4.307000000    -1.617000000    -3.513000000
H    -4.845000000    -1.531000000    -2.726000000
H    -4.745000000    -2.294000000    -4.029000000
O    -5.688000000    -1.797000000    -1.100000000
H    -5.237000000    -2.608000000    -0.861000000
H    -6.523000000    -1.842000000    -0.635000000
O    -1.581000000     5.070000000     1.458000000
H    -1.436000000     4.146000000     1.660000000
H    -1.106000000     5.542000000     2.142000000
O    -0.107000000    -5.875000000    -0.296000000
H     0.292000000    -5.866000000    -1.166000000
H    -0.246000000    -4.952000000    -0.087000000
O     4.596000000     5.669000000     0.237000000
H     4.222000000     6.204000000     0.937000000
H     4.301000000     6.091000000    -0.570000000
O    -2.826000000     2.212000000     3.796000000
H    -1.926000000     2.182000000     3.470000000
H    -3.367000000     2.075000000     3.018000000
O    -1.349000000     2.313000000    -4.003000000
H    -2.221000000     2.180000000    -3.629000000
H    -0.803000000     1.653000000    -3.577000000
O     4.561000000    -2.257000000     0.568000000
H     4.114000000    -3.104000000     0.570000000
H     4.503000000    -1.958000000    -0.340000000
O    -0.594000000    -2.711000000     4.672000000
H     0.087000000    -2.103000000     4.383000000
H    -0.130000000    -3.352000000     5.211000000
O     3.754000000    -4.618000000    -0.568000000
H     4.132000000    -4.971000000    -1.374000000
H     2.850000000    -4.406000000    -0.801000000
O    -4.039000000     5.657000000     0.371000000
H    -3.202000000     5.237000000     0.568000000
H    -4.581000000     5.486000000     1.141000000
O     3.980000000    -1.713000000    -2.322000000
H     3.851000000    -0.776000000    -2.471000000
H     3.848000000    -2.113000000    -3.181000000
O    -3.740000000     2.359000000    -2.895000000
H    -4.377000000     2.152000000    -3.579000000
H    -4.152000000     3.060000000    -2.390000000
O    -0.653000000    -0.570000000    -3.308000000
H    -0.615000000    -1.211000000    -2.597000000
H     0.030000000    -0.848000000    -3.918000000
O    -0.463000000     2.223000000     2.265000000
H    -0.239000000     1.654000000     1.528000000
H     0.341000000     2.270000000     2.783000000
O     5.981000000     0.873000000     2.087000000
H     5.680000000     0.557000000     2.939000000
H     5.951000000     1.827000000     2.160000000
O    -5.189000000     0.775000000    -0.664000000
H    -4.442000000     1.075000000    -1.182000000
H    -5.453000000    -0.047000000    -1.078000000
O     1.877000000    -7.094000000     1.404000000
H     2.441000000    -6.797000000     0.690000000
H     0.989000000    -6.894000000     1.106000000
O     1.999000000    -3.445000000     2.938000000
H     2.621000000    -4.125000000     2.677000000
H     1.257000000    -3.928000000     3.303000000
O    -1.639000000    -3.693000000    -3.258000000
H    -1.332000000    -3.687000000    -4.165000000
H    -2.489000000    -4.131000000    -3.296000000
O    -0.189000000     6.730000000    -4.306000000
H     0.117000000     5.852000000    -4.078000000
H    -0.383000000     6.680000000    -5.242000000
O     1.785000000    -0.518000000     3.840000000
H     2.065000000    -1.032000000     3.083000000
H     2.319000000    -0.846000000     4.564000000
O    -3.867000000    -4.684000000    -0.629000000
H    -3.833000000    -5.638000000    -0.688000000
H    -3.468000000    -4.482000000     0.217000000
O    -5.519000000    -3.540000000     4.614000000
H    -6.439000000    -3.776000000     4.734000000
H    -5.475000000    -3.193000000     3.723000000
O     3.512000000     4.186000000    -3.346000000
H     3.182000000     3.512000000    -2.752000000
H     2.776000000     4.372000000    -3.929000000
O    -3.409000000    -2.098000000     5.746000000
H    -4.121000000    -2.566000000     5.310000000
H    -2.626000000    -2.610000000     5.542000000
