161
-3033.98127
C    -1.258000000    -0.427000000     0.559000000
H    -2.223000000    -0.604000000     1.026000000
C    -1.026000000     0.549000000    -0.428000000
H    -1.865000000     1.058000000    -0.894000000
C     0.248000000     0.879000000    -0.839000000
C     0.360000000     1.918000000    -1.878000000
H    -0.346000000     2.744000000    -1.769000000
H     1.415000000     2.194000000    -1.933000000
H     0.021000000     1.495000000    -2.826000000
C     1.326000000     0.259000000    -0.207000000
H     2.328000000     0.575000000    -0.487000000
C     1.106000000    -0.771000000     0.732000000
H     2.007000000    -1.244000000     1.115000000
C    -0.187000000    -1.056000000     1.168000000
C    -0.550000000    -2.191000000     2.084000000
O     0.353000000    -2.904000000     2.335000000
O    -1.717000000    -2.473000000     2.237000000
O     0.581000000    -1.680000000    -2.471000000
H     1.106000000    -2.442000000    -2.225000000
H     0.441000000    -1.210000000    -1.649000000
O    -3.444000000    -3.844000000     3.669000000
H    -3.221000000    -3.337000000     4.449000000
H    -2.940000000    -3.436000000     2.965000000
O    -2.871000000    -0.860000000     4.158000000
H    -2.388000000    -1.522000000     3.662000000
H    -2.516000000    -0.919000000     5.045000000
O     0.722000000     5.313000000    -3.113000000
H     1.162000000     4.702000000    -3.703000000
H    -0.089000000     4.867000000    -2.868000000
O    -1.301000000    -2.945000000     6.013000000
H    -0.726000000    -2.344000000     6.488000000
H    -0.706000000    -3.579000000     5.612000000
O     6.177000000     0.869000000     2.866000000
H     6.952000000     0.645000000     3.381000000
H     6.182000000     0.244000000     2.141000000
O     4.725000000    -5.916000000     1.327000000
H     4.439000000    -6.751000000     0.956000000
H     3.919000000    -5.501000000     1.633000000
O     5.496000000    -1.470000000    -3.213000000
H     5.716000000    -2.396000000    -3.315000000
H     6.163000000    -1.008000000    -3.720000000
O     3.890000000     2.372000000     2.914000000
H     4.045000000     3.113000000     2.329000000
H     4.756000000     1.986000000     3.046000000
O     0.661000000     7.452000000    -1.439000000
H    -0.179000000     7.186000000    -1.066000000
H     0.883000000     6.754000000    -2.055000000
O     1.092000000     0.991000000    -5.025000000
H     1.593000000     0.414000000    -4.448000000
H     1.035000000     0.512000000    -5.852000000
O     2.682000000    -4.211000000     1.725000000
H     1.796000000    -3.997000000     2.016000000
H     3.170000000    -3.393000000     1.822000000
O    -4.770000000     1.295000000     0.741000000
H    -4.343000000     1.579000000     1.550000000
H    -4.354000000     1.816000000     0.055000000
O    -1.687000000     4.400000000    -3.066000000
H    -1.577000000     3.717000000    -3.727000000
H    -2.553000000     4.768000000    -3.242000000
O     4.063000000     3.115000000    -3.309000000
H     4.248000000     2.772000000    -2.435000000
H     4.058000000     4.065000000    -3.197000000
O    -1.294000000    -1.916000000    -4.585000000
H    -1.566000000    -2.523000000    -3.898000000
H    -0.649000000    -1.348000000    -4.163000000
O    -3.210000000    -3.824000000     0.131000000
H    -2.782000000    -3.231000000     0.749000000
H    -2.697000000    -4.631000000     0.179000000
O     2.933000000    -1.601000000     4.242000000
H     3.273000000    -1.975000000     3.429000000
H     2.458000000    -2.321000000     4.657000000
O     7.203000000    -1.364000000     0.806000000
H     7.522000000    -2.152000000     0.366000000
H     6.362000000    -1.180000000     0.387000000
O     2.383000000    -5.748000000     5.687000000
H     3.076000000    -5.108000000     5.851000000
H     1.907000000    -5.396000000     4.934000000
O     1.955000000     3.484000000    -5.044000000
H     2.677000000     3.401000000    -4.420000000
H     1.546000000     2.619000000    -5.053000000
O    -3.386000000     3.218000000    -0.721000000
H    -2.994000000     3.313000000    -1.589000000
H    -2.775000000     3.662000000    -0.133000000
O     0.388000000    -4.507000000     4.515000000
H     0.350000000    -3.896000000     3.779000000
H    -0.290000000    -5.155000000     4.323000000
O    -0.743000000     1.993000000     1.949000000
H    -0.023000000     1.908000000     2.574000000
H    -0.740000000     1.167000000     1.466000000
O     4.769000000    -0.694000000    -0.426000000
H     4.740000000     0.252000000    -0.572000000
H     5.012000000    -1.060000000    -1.276000000
O    -3.540000000     1.505000000     3.111000000
H    -3.308000000     0.617000000     3.382000000
H    -2.699000000     1.937000000     2.963000000
O     2.982000000    -0.400000000    -3.575000000
H     2.746000000    -0.425000000    -2.648000000
H     3.825000000    -0.851000000    -3.620000000
O    -2.974000000     3.936000000    -6.856000000
H    -2.347000000     3.462000000    -6.310000000
H    -3.827000000     3.741000000    -6.466000000
O     0.270000000    -4.877000000    -1.357000000
H    -0.255000000    -4.281000000    -1.891000000
H     1.102000000    -4.420000000    -1.236000000
O    -0.251000000     5.838000000     1.232000000
H    -0.224000000     6.775000000     1.423000000
H    -0.052000000     5.418000000     2.069000000
O    -7.011000000     0.998000000    -0.699000000
H    -6.273000000     1.167000000    -0.113000000
H    -6.861000000     1.578000000    -1.446000000
O    -5.695000000    -3.247000000     1.554000000
H    -5.058000000    -2.738000000     1.053000000
H    -5.402000000    -3.171000000     2.462000000
O    -2.383000000     4.210000000     2.865000000
H    -2.114000000     4.995000000     3.342000000
H    -1.714000000     4.100000000     2.189000000
O     5.060000000     0.025000000     5.351000000
H     4.328000000    -0.434000000     4.938000000
H     5.702000000     0.132000000     4.650000000
O    -5.461000000    -1.785000000     4.053000000
H    -4.701000000    -1.288000000     4.356000000
H    -6.213000000    -1.312000000     4.408000000
O    -2.253000000     7.367000000    -0.969000000
H    -3.146000000     7.639000000    -1.179000000
H    -2.360000000     6.559000000    -0.467000000
O    -3.594000000     0.503000000    -4.384000000
H    -3.315000000    -0.401000000    -4.239000000
H    -4.546000000     0.450000000    -4.465000000
O    -5.528000000     2.365000000    -2.379000000
H    -5.881000000     3.237000000    -2.557000000
H    -4.729000000     2.527000000    -1.879000000
O     4.366000000    -2.040000000     2.007000000
H     4.268000000    -1.765000000     1.096000000
H     5.310000000    -2.153000000     2.123000000
O    -1.360000000     2.285000000    -5.050000000
H    -0.536000000     1.798000000    -5.067000000
H    -2.033000000     1.620000000    -5.193000000
O     5.401000000    -3.786000000    -0.571000000
H     5.523000000    -4.239000000     0.263000000
H     5.216000000    -4.484000000    -1.199000000
O     1.434000000     1.241000000     3.522000000
H     2.281000000     1.629000000     3.300000000
H     1.646000000     0.352000000     3.809000000
O    -1.365000000    -5.996000000     0.452000000
H    -0.868000000    -6.677000000     0.905000000
H    -0.699000000    -5.450000000     0.035000000
O    -2.322000000    -3.261000000    -2.516000000
H    -2.427000000    -3.398000000    -1.575000000
H    -3.024000000    -3.777000000    -2.913000000
O     4.553000000     2.155000000    -0.900000000
H     5.494000000     2.146000000    -0.727000000
H     4.151000000     2.211000000    -0.033000000
O     4.095000000     4.616000000     1.124000000
H     4.529000000     5.383000000     1.497000000
H     3.556000000     4.966000000     0.415000000
O     2.613000000    -3.200000000    -0.891000000
H     2.914000000    -3.736000000    -0.157000000
H     3.337000000    -3.222000000    -1.517000000
O    -4.984000000    -5.790000000     4.441000000
H    -4.477000000    -4.987000000     4.327000000
H    -5.200000000    -6.066000000     3.550000000
