161
-3057.29563
C    -0.598000000    -0.615000000    -1.219000000
H    -1.011000000    -1.086000000    -2.108000000
C     0.761000000    -0.714000000    -0.830000000
H     1.435000000    -1.124000000    -1.578000000
C     1.216000000    -0.130000000     0.332000000
C     2.673000000     0.135000000     0.553000000
H     3.061000000    -0.363000000     1.444000000
H     3.181000000    -0.107000000    -0.383000000
H     2.873000000     1.203000000     0.660000000
C     0.270000000     0.388000000     1.201000000
H     0.612000000     0.767000000     2.161000000
C    -1.121000000     0.439000000     0.881000000
H    -1.808000000     0.796000000     1.645000000
C    -1.531000000    -0.050000000    -0.356000000
C    -2.974000000     0.011000000    -0.702000000
O    -3.805000000     0.206000000     0.180000000
O    -3.230000000     0.241000000    -1.874000000
O    -1.734000000     1.228000000    -4.014000000
H    -2.178000000     0.813000000    -3.274000000
H    -1.563000000     0.510000000    -4.623000000
O    -3.968000000     2.232000000     4.355000000
H    -3.948000000     2.437000000     3.420000000
H    -4.493000000     2.933000000     4.742000000
O    -6.908000000     3.018000000     3.068000000
H    -6.169000000     2.916000000     2.468000000
H    -7.654000000     3.204000000     2.499000000
O    -7.455000000    -3.668000000    -0.615000000
H    -6.852000000    -3.592000000    -1.355000000
H    -7.165000000    -2.995000000     0.000000000
O    -6.201000000    -1.189000000     0.261000000
H    -6.652000000    -0.931000000    -0.543000000
H    -5.301000000    -0.889000000     0.139000000
O     3.633000000    -0.765000000     6.584000000
H     3.454000000    -0.333000000     5.748000000
H     3.376000000    -0.123000000     7.245000000
O     3.945000000     2.397000000    -1.421000000
H     3.906000000     2.458000000    -2.376000000
H     3.633000000     1.514000000    -1.224000000
O     5.685000000    -1.061000000    -3.247000000
H     5.212000000    -1.740000000    -2.766000000
H     5.022000000    -0.657000000    -3.807000000
O    -3.485000000    -1.201000000     2.696000000
H    -3.666000000    -0.630000000     1.950000000
H    -3.477000000    -2.083000000     2.326000000
O     4.567000000     4.728000000     2.497000000
H     4.821000000     5.487000000     3.023000000
H     4.223000000     4.100000000     3.132000000
O     0.650000000    -4.359000000    -2.000000000
H     1.222000000    -4.312000000    -1.234000000
H     0.506000000    -5.296000000    -2.134000000
O    -5.215000000    -3.490000000    -2.085000000
H    -5.018000000    -2.675000000    -2.548000000
H    -4.467000000    -3.621000000    -1.502000000
O    -3.313000000    -3.639000000     1.080000000
H    -2.932000000    -3.660000000     0.202000000
H    -3.986000000    -4.319000000     1.066000000
O    -7.459000000    -0.031000000    -1.687000000
H    -8.406000000     0.093000000    -1.618000000
H    -7.190000000     0.566000000    -2.384000000
O    -6.504000000     1.204000000    -4.400000000
H    -5.636000000     1.594000000    -4.305000000
H    -7.089000000     1.950000000    -4.531000000
O     0.351000000     3.051000000    -3.740000000
H    -0.327000000     2.422000000    -3.492000000
H     0.094000000     3.349000000    -4.613000000
O     3.719000000     1.068000000     4.572000000
H     3.307000000     1.644000000     3.929000000
H     4.614000000     1.397000000     4.651000000
O     3.059000000     2.438000000    -4.111000000
H     2.204000000     2.864000000    -4.050000000
H     3.220000000     2.358000000    -5.052000000
O    -3.875000000     2.288000000    -5.475000000
H    -3.996000000     3.235000000    -5.542000000
H    -2.995000000     2.184000000    -5.113000000
O    -2.869000000     5.154000000     3.123000000
H    -2.218000000     5.035000000     2.431000000
H    -2.409000000     4.916000000     3.928000000
O     1.279000000    -2.696000000     3.918000000
H     0.817000000    -3.447000000     4.290000000
H     0.729000000    -2.415000000     3.187000000
O    -6.114000000     4.458000000    -0.912000000
H    -5.749000000     4.923000000    -0.159000000
H    -5.366000000     4.002000000    -1.297000000
O    -0.862000000     3.459000000    -0.888000000
H    -1.200000000     4.278000000    -1.249000000
H    -0.241000000     3.145000000    -1.545000000
O     2.200000000     5.268000000    -2.098000000
H     2.429000000     4.373000000    -2.351000000
H     2.522000000     5.353000000    -1.200000000
O     6.345000000    -0.220000000     2.539000000
H     5.625000000    -0.802000000     2.783000000
H     6.368000000     0.437000000     3.235000000
O    -2.455000000    -3.854000000    -1.383000000
H    -1.564000000    -3.570000000    -1.590000000
H    -2.511000000    -4.743000000    -1.734000000
O    -3.652000000     2.958000000    -1.501000000
H    -2.716000000     3.087000000    -1.654000000
H    -3.757000000     2.009000000    -1.439000000
O     2.393000000     3.276000000     3.311000000
H     1.752000000     3.484000000     3.991000000
H     1.934000000     3.450000000     2.489000000
O     0.389000000     3.969000000     4.900000000
H    -0.050000000     3.146000000     4.687000000
H    -0.314000000     4.546000000     5.196000000
O    -7.169000000    -0.404000000     2.809000000
H    -6.713000000    -0.845000000     2.092000000
H    -7.151000000     0.523000000     2.571000000
O     4.032000000    -3.204000000     1.029000000
H     4.282000000    -2.994000000     0.129000000
H     3.208000000    -3.683000000     0.943000000
O    -0.897000000     2.021000000     3.898000000
H    -1.747000000     1.949000000     4.332000000
H    -0.844000000     1.241000000     3.345000000
O    -1.878000000    -1.398000000    -5.508000000
H    -1.189000000    -1.393000000    -6.173000000
H    -2.576000000    -0.862000000    -5.883000000
O    -4.721000000    -1.006000000    -3.644000000
H    -5.288000000    -0.364000000    -4.072000000
H    -4.247000000    -0.503000000    -2.981000000
O     5.962000000     3.768000000     0.225000000
H     5.573000000     4.225000000     0.970000000
H     5.272000000     3.180000000    -0.082000000
O    -4.703000000     2.446000000     1.436000000
H    -4.540000000     1.587000000     1.047000000
H    -4.607000000     3.060000000     0.708000000
O    -0.643000000    -3.863000000    -5.051000000
H    -1.331000000    -3.197000000    -5.022000000
H     0.115000000    -3.442000000    -4.646000000
O    -4.283000000    -3.693000000    -5.168000000
H    -3.605000000    -4.277000000    -4.827000000
H    -4.333000000    -2.984000000    -4.526000000
O     1.704000000    -2.783000000    -4.127000000
H     1.748000000    -3.296000000    -3.320000000
H     2.423000000    -3.117000000    -4.663000000
O    -0.493000000     4.213000000     1.655000000
H    -0.432000000     3.513000000     2.305000000
H    -0.824000000     3.781000000     0.868000000
O     4.773000000    -3.378000000    -1.724000000
H     4.221000000    -3.909000000    -2.297000000
H     5.635000000    -3.791000000    -1.771000000
O     2.951000000    -1.285000000    -6.656000000
H     3.037000000    -1.076000000    -5.726000000
H     2.010000000    -1.245000000    -6.824000000
O     4.474000000    -1.959000000     3.632000000
H     3.621000000    -2.066000000     4.054000000
H     4.394000000    -2.435000000     2.806000000
O     3.027000000    -0.329000000    -4.104000000
H     2.257000000    -0.805000000    -3.793000000
H     2.782000000     0.594000000    -4.034000000
O    -3.656000000    -0.199000000     5.336000000
H    -3.821000000     0.726000000     5.156000000
H    -3.569000000    -0.600000000     4.471000000
O     1.592000000    -4.502000000     0.742000000
H     1.284000000    -4.029000000     1.515000000
H     1.394000000    -5.420000000     0.928000000
O     7.331000000     0.926000000    -0.094000000
H     6.956000000     0.463000000     0.655000000
H     6.984000000     1.815000000    -0.025000000
O    -0.433000000    -2.501000000     2.001000000
H    -0.584000000    -1.602000000     1.708000000
H    -1.211000000    -2.980000000     1.714000000
