161
-3070.12405
C    -0.868000000    -0.585000000    -1.030000000
H    -1.604000000    -0.785000000    -1.804000000
C     0.115000000     0.345000000    -1.267000000
H     0.165000000     0.660000000    -2.306000000
C     0.904000000     0.828000000    -0.225000000
C     1.945000000     1.960000000    -0.405000000
H     2.763000000     1.708000000    -1.083000000
H     1.473000000     2.859000000    -0.807000000
H     2.385000000     2.121000000     0.582000000
C     0.617000000     0.372000000     1.080000000
H     1.160000000     0.781000000     1.928000000
C    -0.325000000    -0.640000000     1.352000000
H    -0.503000000    -1.019000000     2.355000000
C    -1.092000000    -1.117000000     0.245000000
C    -2.127000000    -2.191000000     0.427000000
O    -2.282000000    -2.699000000     1.509000000
O    -2.723000000    -2.593000000    -0.554000000
O    -0.085000000    -0.413000000     5.726000000
H    -0.794000000     0.161000000     5.436000000
H    -0.480000000    -1.284000000     5.757000000
O     7.530000000     2.634000000     0.219000000
H     6.577000000     2.709000000     0.166000000
H     7.745000000     2.939000000     1.100000000
O     1.127000000     1.939000000    -4.662000000
H     0.228000000     1.826000000    -4.972000000
H     1.425000000     1.051000000    -4.463000000
O    -0.801000000    -0.812000000    -4.290000000
H     0.139000000    -0.976000000    -4.222000000
H    -1.135000000    -1.542000000    -4.811000000
O     6.227000000     2.281000000     4.638000000
H     5.955000000     1.697000000     5.346000000
H     5.726000000     1.984000000     3.878000000
O    -1.807000000     1.088000000     4.257000000
H    -2.347000000     1.559000000     4.891000000
H    -2.433000000     0.583000000     3.738000000
O    -7.198000000    -0.327000000    -1.536000000
H    -7.148000000    -0.035000000    -2.446000000
H    -6.315000000    -0.634000000    -1.334000000
O     3.893000000     4.589000000    -1.448000000
H     3.137000000     4.061000000    -1.704000000
H     3.525000000     5.290000000    -0.911000000
O    -4.723000000    -3.676000000     2.348000000
H    -3.812000000    -3.564000000     2.077000000
H    -4.700000000    -4.405000000     2.968000000
O     4.845000000     3.339000000     1.042000000
H     4.489000000     3.844000000     0.311000000
H     4.499000000     3.771000000     1.823000000
O     2.169000000     1.470000000     5.884000000
H     2.436000000     1.674000000     6.780000000
H     1.617000000     0.693000000     5.969000000
O     0.801000000    -4.161000000    -0.567000000
H     1.656000000    -4.431000000    -0.231000000
H     0.726000000    -3.239000000    -0.320000000
O    -4.849000000    -4.255000000    -1.129000000
H    -4.178000000    -3.793000000    -0.626000000
H    -4.520000000    -5.150000000    -1.203000000
O    -3.374000000    -6.550000000    -1.733000000
H    -3.542000000    -7.332000000    -1.206000000
H    -2.673000000    -6.094000000    -1.268000000
O    -2.671000000    -4.672000000    -5.199000000
H    -2.794000000    -5.591000000    -4.962000000
H    -1.964000000    -4.370000000    -4.628000000
O    -6.720000000    -3.856000000    -3.289000000
H    -5.955000000    -3.933000000    -2.719000000
H    -6.684000000    -4.634000000    -3.844000000
O    -3.761000000    -0.273000000    -3.849000000
H    -4.352000000    -0.743000000    -4.437000000
H    -2.902000000    -0.344000000    -4.267000000
O    -2.733000000     3.572000000    -4.311000000
H    -2.254000000     4.103000000    -3.676000000
H    -3.171000000     2.904000000    -3.783000000
O     2.422000000     5.795000000     0.808000000
H     2.371000000     6.748000000     0.875000000
H     2.585000000     5.500000000     1.704000000
O     4.133000000     0.626000000     3.849000000
H     4.393000000    -0.231000000     4.186000000
H     3.434000000     0.913000000     4.437000000
O     1.278000000     4.125000000    -2.994000000
H     1.753000000     4.835000000    -3.427000000
H     1.270000000     3.416000000    -3.636000000
O    -0.096000000     4.815000000     1.129000000
H     0.773000000     4.956000000     0.755000000
H    -0.498000000     5.683000000     1.138000000
O    -4.450000000     0.812000000     0.675000000
H    -4.533000000     0.069000000     0.077000000
H    -3.913000000     0.480000000     1.395000000
O    -1.434000000     3.030000000    -0.347000000
H    -1.086000000     3.629000000     0.313000000
H    -1.045000000     2.182000000    -0.130000000
O     3.319000000     5.849000000    -3.808000000
H     3.061000000     6.624000000    -3.308000000
H     4.007000000     5.442000000    -3.281000000
O     5.442000000     0.839000000     1.701000000
H     5.049000000     0.725000000     2.567000000
H     5.210000000     1.733000000     1.449000000
O    -1.592000000    -5.147000000    -0.253000000
H    -1.695000000    -4.503000000     0.448000000
H    -0.691000000    -5.030000000    -0.554000000
O    -3.765000000     2.140000000    -2.005000000
H    -4.023000000     1.986000000    -1.097000000
H    -3.719000000     1.266000000    -2.393000000
O     2.777000000     4.100000000     3.264000000
H     2.965000000     4.371000000     4.162000000
H     1.982000000     3.572000000     3.334000000
O     0.386000000     2.711000000     4.022000000
H     1.015000000     2.244000000     4.571000000
H    -0.382000000     2.140000000     3.999000000
O     2.162000000    -0.546000000    -4.764000000
H     2.858000000    -0.995000000    -4.285000000
H     2.197000000    -0.919000000    -5.645000000
O    -2.022000000    -3.605000000    -2.827000000
H    -1.243000000    -4.000000000    -2.436000000
H    -2.473000000    -3.189000000    -2.093000000
O     2.837000000    -2.458000000     3.253000000
H     2.041000000    -2.864000000     2.910000000
H     3.167000000    -1.928000000     2.527000000
O    -4.614000000    -0.986000000    -1.355000000
H    -4.283000000    -0.756000000    -2.223000000
H    -4.141000000    -1.785000000    -1.122000000
O    -2.425000000    -3.189000000     4.466000000
H    -3.357000000    -3.296000000     4.657000000
H    -2.403000000    -2.654000000     3.672000000
O     6.198000000     0.095000000    -3.209000000
H     5.616000000     0.841000000    -3.352000000
H     5.827000000    -0.605000000    -3.746000000
O    -3.951000000    -0.826000000     2.927000000
H    -3.930000000    -1.730000000     2.612000000
H    -4.691000000    -0.802000000     3.534000000
O     0.527000000     6.036000000     3.818000000
H     1.334000000     6.088000000     4.330000000
H     0.669000000     5.303000000     3.219000000
O     2.328000000    -1.958000000    -1.623000000
H     1.609000000    -1.414000000    -1.944000000
H     2.369000000    -2.688000000    -2.241000000
O    -6.977000000    -4.094000000     0.754000000
H    -6.443000000    -4.067000000    -0.040000000
H    -6.370000000    -3.869000000     1.459000000
O    -1.116000000     4.872000000    -2.421000000
H    -0.189000000     4.764000000    -2.636000000
H    -1.305000000     4.160000000    -1.810000000
O    -4.211000000    -6.311000000     3.183000000
H    -3.648000000    -6.416000000     3.950000000
H    -3.737000000    -6.747000000     2.475000000
O     4.355000000    -1.759000000     5.210000000
H     5.023000000    -2.255000000     4.736000000
H     3.538000000    -1.959000000     4.753000000
O     6.520000000     3.605000000    -2.731000000
H     5.797000000     4.099000000    -2.346000000
H     6.819000000     3.030000000    -2.026000000
O     3.442000000    -1.324000000     0.797000000
H     3.844000000    -0.465000000     0.672000000
H     3.084000000    -1.548000000    -0.062000000
O    -0.507000000    -5.809000000     3.744000000
H    -0.993000000    -6.135000000     4.502000000
H    -0.757000000    -6.395000000     3.029000000
O     0.059000000    -3.523000000     2.464000000
H    -0.640000000    -2.971000000     2.112000000
H    -0.299000000    -3.869000000     3.282000000
O    -1.131000000     2.596000000    -6.516000000
H    -1.086000000     3.219000000    -7.241000000
H    -1.569000000     3.078000000    -5.814000000
