161
-2999.17286
C     0.646000000     1.125000000    -0.446000000
H     1.306000000     1.974000000    -0.601000000
C     1.267000000    -0.097000000    -0.250000000
H     2.336000000    -0.152000000    -0.438000000
C     0.515000000    -1.138000000     0.133000000
C     1.169000000    -2.415000000     0.432000000
H     2.034000000    -2.394000000     1.098000000
H     0.453000000    -3.120000000     0.861000000
H     1.528000000    -2.717000000    -0.555000000
C    -0.858000000    -0.964000000     0.410000000
H    -1.411000000    -1.771000000     0.884000000
C    -1.495000000     0.325000000     0.209000000
H    -2.527000000     0.486000000     0.511000000
C    -0.769000000     1.331000000    -0.326000000
C    -1.280000000     2.774000000    -0.603000000
O    -2.312000000     3.106000000    -0.172000000
O    -0.597000000     3.641000000    -1.154000000
O     1.861000000     4.745000000    -1.523000000
H     1.132000000     4.179000000    -1.268000000
H     2.641000000     4.208000000    -1.382000000
O     2.338000000    -6.528000000    -1.872000000
H     1.402000000    -6.352000000    -1.780000000
H     2.673000000    -5.787000000    -2.378000000
O     5.326000000     0.695000000     2.415000000
H     5.843000000     1.291000000     2.956000000
H     5.257000000    -0.104000000     2.938000000
O    -1.830000000     5.028000000    -6.008000000
H    -2.150000000     5.826000000    -5.588000000
H    -1.031000000     4.809000000    -5.529000000
O    -0.827000000    -3.549000000     4.647000000
H    -1.331000000    -4.195000000     4.154000000
H    -0.475000000    -4.037000000     5.392000000
O    -1.315000000    -6.674000000     0.262000000
H    -0.988000000    -6.580000000    -0.633000000
H    -2.170000000    -7.093000000     0.161000000
O     5.577000000    -5.895000000    -0.956000000
H     4.733000000    -5.786000000    -0.517000000
H     5.405000000    -6.528000000    -1.653000000
O    -4.216000000     2.393000000     2.102000000
H    -3.676000000     2.666000000     1.360000000
H    -3.608000000     1.946000000     2.690000000
O    -3.432000000    -2.890000000    -0.944000000
H    -2.522000000    -3.174000000    -1.030000000
H    -3.709000000    -3.230000000    -0.093000000
O    -4.774000000     1.877000000    -2.889000000
H    -4.338000000     2.682000000    -2.611000000
H    -5.514000000     1.786000000    -2.288000000
O     2.538000000    -1.439000000     4.418000000
H     2.357000000    -0.541000000     4.693000000
H     1.774000000    -1.937000000     4.708000000
O    -0.138000000     5.552000000     0.837000000
H     0.760000000     5.870000000     0.747000000
H    -0.316000000     5.100000000     0.011000000
O    -3.417000000    -0.750000000    -3.028000000
H    -3.967000000    -1.522000000    -2.894000000
H    -3.975000000    -0.012000000    -2.783000000
O    -0.875000000    -3.149000000    -2.493000000
H    -1.103000000    -2.790000000    -3.350000000
H    -0.380000000    -2.452000000    -2.065000000
O    -0.542000000     4.376000000    -3.822000000
H    -1.346000000     4.894000000    -3.820000000
H    -0.395000000     4.158000000    -2.902000000
O    -4.499000000    -3.936000000     1.146000000
H    -5.399000000    -4.208000000     1.327000000
H    -3.997000000    -4.261000000     1.894000000
O     4.693000000     2.547000000     0.430000000
H     5.611000000     2.360000000     0.233000000
H     4.532000000     2.103000000     1.263000000
O    -1.203000000    -5.827000000    -2.660000000
H    -0.542000000    -5.912000000    -3.347000000
H    -1.218000000    -4.892000000    -2.456000000
O    -2.436000000     1.175000000     3.536000000
H    -2.856000000     0.698000000     4.251000000
H    -1.576000000     0.766000000     3.448000000
O    -7.051000000     1.576000000     1.866000000
H    -6.878000000     0.659000000     2.081000000
H    -6.221000000     2.022000000     2.036000000
O     3.651000000     0.366000000    -3.256000000
H     4.319000000    -0.307000000    -3.383000000
H     2.833000000    -0.122000000    -3.166000000
O     1.670000000     6.817000000    -2.999000000
H     1.786000000     5.982000000    -2.547000000
H     0.782000000     7.092000000    -2.769000000
O     1.309000000    -1.103000000    -4.030000000
H     0.491000000    -0.618000000    -3.923000000
H     1.047000000    -1.930000000    -4.435000000
O    -4.578000000     6.987000000     2.484000000
H    -3.994000000     6.388000000     2.018000000
H    -5.449000000     6.787000000     2.142000000
O    -2.215000000     8.126000000     0.721000000
H    -2.106000000     7.180000000     0.627000000
H    -1.723000000     8.346000000     1.512000000
O     7.514000000    -0.031000000     0.365000000
H     7.942000000     0.811000000     0.214000000
H     6.657000000     0.197000000     0.725000000
O     6.109000000    -1.300000000     4.038000000
H     5.619000000    -2.108000000     3.882000000
H     6.159000000    -1.231000000     4.991000000
O     0.000000000     0.477000000     2.837000000
H     0.453000000    -0.227000000     2.374000000
H     0.156000000     1.255000000     2.301000000
O     3.770000000     3.457000000    -4.674000000
H     3.421000000     3.313000000    -5.554000000
H     3.237000000     2.897000000    -4.110000000
O    -4.769000000     4.112000000     4.570000000
H    -4.535000000     3.960000000     3.655000000
H    -5.162000000     3.287000000     4.856000000
O    -5.280000000     5.973000000    -1.639000000
H    -6.087000000     5.836000000    -1.141000000
H    -5.525000000     6.593000000    -2.325000000
O    -1.082000000     0.201000000    -3.255000000
H    -1.940000000    -0.180000000    -3.069000000
H    -0.732000000     0.433000000    -2.395000000
O     4.886000000     5.194000000    -0.282000000
H     4.855000000     4.329000000     0.126000000
H     3.974000000     5.394000000    -0.490000000
O     1.046000000     3.414000000     2.126000000
H     0.602000000     4.063000000     1.581000000
H     0.839000000     3.673000000     3.024000000
O    -2.834000000     5.063000000     1.364000000
H    -1.955000000     5.294000000     1.666000000
H    -2.688000000     4.413000000     0.677000000
O    -1.206000000     7.186000000    -2.434000000
H    -1.973000000     6.776000000    -2.036000000
H    -1.558000000     7.695000000    -3.164000000
O    -1.065000000     1.964000000    -5.290000000
H    -1.035000000     1.297000000    -4.605000000
H    -1.148000000     2.791000000    -4.816000000
O     1.286000000     5.972000000    -5.680000000
H     0.941000000     5.293000000    -5.101000000
H     2.009000000     6.361000000    -5.189000000
O    -3.271000000     4.357000000    -2.396000000
H    -2.851000000     3.985000000    -1.621000000
H    -3.809000000     5.073000000    -2.056000000
O    -0.671000000     3.670000000     4.373000000
H    -1.348000000     4.219000000     4.770000000
H    -1.157000000     2.976000000     3.928000000
O     3.459000000     2.671000000    -1.929000000
H     3.916000000     2.514000000    -1.102000000
H     3.396000000     1.807000000    -2.335000000
O     2.698000000    -5.598000000     0.895000000
H     2.145000000    -5.307000000     0.169000000
H     2.081000000    -5.934000000     1.546000000
O     3.029000000    -4.428000000    -3.597000000
H     3.498000000    -3.648000000    -3.299000000
H     3.457000000    -4.664000000    -4.420000000
O    -5.813000000    -1.007000000     2.265000000
H    -4.862000000    -1.014000000     2.369000000
H    -6.130000000    -1.628000000     2.921000000
O     6.487000000    -0.110000000    -2.156000000
H     6.819000000    -0.057000000    -1.259000000
H     6.041000000    -0.956000000    -2.196000000
O     4.293000000    -3.424000000     2.310000000
H     3.413000000    -3.101000000     2.502000000
H     4.152000000    -4.286000000     1.918000000
O    -0.757000000    -0.545000000     5.174000000
H    -0.178000000    -0.253000000     4.469000000
H    -0.804000000    -1.495000000     5.066000000
O     4.915000000    -1.472000000     0.236000000
H     4.827000000    -2.280000000     0.742000000
H     4.717000000    -0.775000000     0.861000000
