161
-3036.63223
C    -0.576000000    -0.579000000    -1.194000000
H    -1.167000000    -0.876000000    -2.056000000
C    -0.791000000    -1.072000000     0.052000000
H    -1.470000000    -1.902000000     0.230000000
C    -0.187000000    -0.427000000     1.118000000
C    -0.320000000    -1.018000000     2.463000000
H    -0.616000000    -2.063000000     2.355000000
H     0.625000000    -1.125000000     2.999000000
H    -1.005000000    -0.471000000     3.115000000
C     0.591000000     0.734000000     0.978000000
H     1.123000000     1.249000000     1.774000000
C     0.756000000     1.215000000    -0.314000000
H     1.372000000     2.088000000    -0.512000000
C     0.185000000     0.547000000    -1.424000000
C     0.406000000     1.107000000    -2.812000000
O     1.056000000     2.086000000    -2.962000000
O     0.023000000     0.501000000    -3.805000000
O    -4.639000000    -5.033000000     1.182000000
H    -4.393000000    -4.211000000     0.757000000
H    -4.731000000    -4.806000000     2.107000000
O     0.660000000    -2.077000000    -4.367000000
H     1.254000000    -1.853000000    -5.083000000
H     0.569000000    -1.266000000    -3.868000000
O    -0.701000000     1.999000000    -7.760000000
H    -1.646000000     2.129000000    -7.682000000
H    -0.467000000     2.432000000    -8.581000000
O    -1.879000000    -4.721000000     3.594000000
H    -2.592000000    -4.276000000     4.051000000
H    -1.480000000    -5.281000000     4.260000000
O    -5.878000000     0.484000000     1.658000000
H    -5.342000000     1.198000000     2.002000000
H    -5.543000000     0.336000000     0.774000000
O     2.640000000     5.430000000     0.593000000
H     2.009000000     5.033000000    -0.007000000
H     2.845000000     6.278000000     0.199000000
O    -3.522000000    -2.749000000    -4.364000000
H    -2.705000000    -3.233000000    -4.241000000
H    -3.246000000    -1.840000000    -4.486000000
O    -4.566000000    -0.084000000    -1.027000000
H    -4.764000000    -0.555000000    -1.836000000
H    -4.643000000     0.840000000    -1.261000000
O    -0.805000000     4.303000000     0.036000000
H    -1.371000000     4.209000000     0.802000000
H    -0.566000000     5.230000000     0.027000000
O    -0.126000000    -0.679000000    -7.215000000
H    -0.469000000     0.190000000    -7.422000000
H    -0.757000000    -1.045000000    -6.595000000
O     1.865000000    -3.700000000    -2.478000000
H     1.875000000    -3.472000000    -1.548000000
H     1.362000000    -2.999000000    -2.892000000
O     4.399000000     3.409000000     1.234000000
H     5.201000000     3.788000000     1.594000000
H     3.950000000     4.147000000     0.821000000
O     1.496000000     2.182000000     4.272000000
H     1.393000000     2.504000000     5.167000000
H     1.910000000     2.907000000     3.803000000
O     3.672000000     1.812000000    -3.559000000
H     3.835000000     2.646000000    -4.001000000
H     2.755000000     1.858000000    -3.291000000
O     2.853000000    -1.165000000    -0.202000000
H     2.180000000    -0.508000000    -0.024000000
H     2.543000000    -1.953000000     0.243000000
O     5.130000000     0.265000000    -5.328000000
H     5.558000000    -0.365000000    -4.748000000
H     4.603000000     0.810000000    -4.743000000
O    -0.760000000    -4.820000000     0.985000000
H    -1.385000000    -4.492000000     0.338000000
H    -1.213000000    -4.730000000     1.823000000
O     5.985000000     1.546000000    -1.711000000
H     5.248000000     2.084000000    -1.423000000
H     5.888000000     1.496000000    -2.662000000
O     1.122000000    -6.124000000     3.981000000
H     2.027000000    -6.280000000     3.708000000
H     0.893000000    -5.285000000     3.582000000
O    -2.274000000    -4.244000000    -1.217000000
H    -3.180000000    -4.342000000    -1.508000000
H    -1.755000000    -4.335000000    -2.016000000
O     1.581000000    -0.609000000     6.241000000
H     2.099000000    -0.115000000     5.605000000
H     2.226000000    -1.115000000     6.734000000
O     3.072000000     5.227000000    -3.815000000
H     2.471000000     5.127000000    -3.076000000
H     3.549000000     6.035000000    -3.628000000
O    -3.346000000     1.953000000    -4.182000000
H    -4.223000000     2.262000000    -3.955000000
H    -2.765000000     2.422000000    -3.583000000
O    -1.212000000    -3.885000000    -3.827000000
H    -0.462000000    -3.291000000    -3.850000000
H    -0.979000000    -4.588000000    -4.433000000
O    -6.742000000    -2.287000000    -0.687000000
H    -6.582000000    -1.393000000    -0.385000000
H    -5.999000000    -2.789000000    -0.353000000
O    -3.011000000     2.779000000     6.990000000
H    -2.639000000     3.325000000     6.297000000
H    -2.924000000     1.884000000     6.662000000
O     2.723000000    -3.328000000     5.213000000
H     2.062000000    -3.485000000     5.888000000
H     2.685000000    -2.384000000     5.056000000
O    -2.145000000     3.813000000    -2.264000000
H    -1.787000000     3.797000000    -1.376000000
H    -2.643000000     4.629000000    -2.306000000
O     1.902000000    -3.961000000     0.138000000
H     2.313000000    -4.769000000    -0.168000000
H     1.113000000    -4.252000000     0.596000000
O     2.607000000    -0.878000000    -5.837000000
H     1.901000000    -0.296000000    -6.119000000
H     3.357000000    -0.297000000    -5.704000000
O    -0.523000000     3.808000000    -4.613000000
H     0.389000000     3.557000000    -4.465000000
H    -0.983000000     3.511000000    -3.827000000
O    -4.204000000    -2.529000000    -0.003000000
H    -4.147000000    -1.607000000    -0.253000000
H    -3.380000000    -2.911000000    -0.305000000
O     3.608000000     3.542000000    -6.026000000
H     2.885000000     2.920000000    -5.950000000
H     3.399000000     4.231000000    -5.396000000
O     3.181000000    -0.031000000     3.943000000
H     3.804000000     0.323000000     3.308000000
H     2.529000000     0.662000000     4.050000000
O     2.897000000     4.524000000     3.499000000
H     2.425000000     5.120000000     2.918000000
H     3.585000000     4.148000000     2.949000000
O     0.406000000    -6.629000000    -0.726000000
H     0.903000000    -7.265000000    -0.213000000
H     0.055000000    -6.019000000    -0.076000000
O    -1.527000000     4.212000000     4.938000000
H    -1.117000000     4.992000000     4.565000000
H    -1.550000000     3.584000000     4.216000000
O     1.329000000     4.534000000    -1.824000000
H     0.414000000     4.771000000    -1.671000000
H     1.303000000     3.601000000    -2.033000000
O    -4.173000000    -1.953000000     4.614000000
H    -4.348000000    -2.761000000     4.131000000
H    -4.153000000    -1.272000000     3.942000000
O    -2.254000000    -0.417000000    -4.324000000
H    -1.336000000    -0.246000000    -4.114000000
H    -2.669000000     0.445000000    -4.311000000
O    -3.507000000     1.948000000    -6.966000000
H    -3.285000000     1.083000000    -7.312000000
H    -3.249000000     1.911000000    -6.045000000
O     4.977000000    -3.731000000     3.388000000
H     4.823000000    -3.509000000     4.307000000
H     4.111000000    -3.686000000     2.982000000
O     1.519000000     1.763000000    -5.842000000
H     0.903000000     1.931000000    -6.556000000
H     0.977000000     1.412000000    -5.136000000
O    -0.738000000    -0.711000000     7.638000000
H    -0.271000000    -0.846000000     8.462000000
H    -0.061000000    -0.780000000     6.965000000
O     4.832000000     0.879000000     1.928000000
H     4.508000000     0.157000000     1.390000000
H     4.468000000     1.664000000     1.519000000
O    -1.854000000     2.651000000     2.669000000
H    -2.633000000     2.459000000     2.146000000
H    -1.180000000     2.070000000     2.317000000
O    -0.207000000     6.759000000    -4.093000000
H    -0.199000000     6.950000000    -3.155000000
H    -0.558000000     5.871000000    -4.153000000
O    -3.134000000    -0.086000000     6.488000000
H    -2.228000000    -0.341000000     6.664000000
H    -3.529000000    -0.863000000     6.092000000
