161
-3031.84324
C    -0.091000000    -0.612000000     1.317000000
H    -0.306000000    -0.935000000     2.333000000
C    -0.626000000     0.612000000     0.984000000
H    -1.173000000     1.183000000     1.730000000
C    -0.466000000     1.152000000    -0.309000000
C    -1.182000000     2.307000000    -0.689000000
H    -2.231000000     2.087000000    -0.479000000
H    -0.805000000     3.040000000     0.027000000
H    -0.998000000     2.655000000    -1.708000000
C     0.374000000     0.440000000    -1.216000000
H     0.474000000     0.776000000    -2.245000000
C     0.913000000    -0.799000000    -0.893000000
H     1.390000000    -1.350000000    -1.699000000
C     0.708000000    -1.320000000     0.411000000
C     1.159000000    -2.697000000     0.718000000
O     1.878000000    -3.274000000    -0.047000000
O     0.974000000    -3.269000000     1.765000000
O     0.631000000     4.988000000    -1.986000000
H    -0.266000000     4.715000000    -2.182000000
H     0.727000000     5.830000000    -2.431000000
O    -5.108000000     1.237000000     1.090000000
H    -5.478000000     1.803000000     0.413000000
H    -5.613000000     0.426000000     1.025000000
O     0.799000000    -5.585000000    -0.271000000
H     1.046000000    -4.691000000    -0.036000000
H     0.891000000    -5.617000000    -1.224000000
O     5.290000000    -2.805000000    -2.737000000
H     5.180000000    -1.895000000    -3.013000000
H     5.718000000    -3.231000000    -3.481000000
O    -2.773000000     7.150000000     0.648000000
H    -3.382000000     7.541000000     1.275000000
H    -3.272000000     6.446000000     0.236000000
O     2.724000000    -5.170000000    -4.869000000
H     2.258000000    -4.804000000    -4.117000000
H     3.277000000    -5.857000000    -4.497000000
O     2.853000000     0.282000000     1.921000000
H     2.724000000     0.382000000     0.978000000
H     3.278000000    -0.571000000     2.015000000
O     3.716000000     3.730000000     0.812000000
H     4.501000000     4.260000000     0.946000000
H     3.575000000     3.294000000     1.652000000
O     0.816000000    -5.918000000     2.567000000
H     1.009000000    -5.096000000     2.117000000
H     0.184000000    -6.359000000     2.000000000
O     2.282000000    -3.585000000    -2.714000000
H     3.199000000    -3.758000000    -2.502000000
H     1.861000000    -3.451000000    -1.865000000
O     1.044000000     2.306000000     3.841000000
H     1.150000000     2.831000000     3.048000000
H     0.119000000     2.401000000     4.069000000
O     3.211000000     3.741000000     3.800000000
H     2.371000000     3.307000000     3.953000000
H     2.975000000     4.613000000     3.485000000
O     0.221000000    -0.032000000    -5.937000000
H     0.966000000    -0.625000000    -6.025000000
H    -0.187000000    -0.280000000    -5.107000000
O    -2.349000000    -1.781000000    -0.134000000
H    -2.213000000    -2.409000000     0.575000000
H    -1.630000000    -1.156000000    -0.042000000
O     0.182000000    -4.861000000     5.047000000
H     0.627000000    -5.053000000     4.222000000
H    -0.685000000    -5.255000000     4.949000000
O     2.402000000    -7.504000000     4.444000000
H     1.613000000    -7.557000000     4.983000000
H     2.131000000    -7.012000000     3.670000000
O     2.345000000    -2.588000000     4.036000000
H     1.833000000    -2.810000000     3.258000000
H     2.786000000    -3.404000000     4.273000000
O     3.628000000    -7.491000000     0.033000000
H     3.501000000    -6.551000000     0.156000000
H     2.752000000    -7.829000000    -0.154000000
O     1.050000000     4.408000000     1.833000000
H     1.495000000     4.249000000     1.000000000
H     0.462000000     5.142000000     1.654000000
O     2.858000000     4.290000000    -4.173000000
H     2.633000000     4.625000000    -3.305000000
H     2.093000000     4.491000000    -4.713000000
O     4.111000000    -5.175000000     4.364000000
H     4.955000000    -5.140000000     4.814000000
H     3.803000000    -6.070000000     4.503000000
O    -4.913000000    -1.601000000    -0.425000000
H    -5.065000000    -1.293000000    -1.319000000
H    -3.963000000    -1.711000000    -0.369000000
O     0.631000000    -2.613000000     6.357000000
H     1.569000000    -2.489000000     6.213000000
H     0.365000000    -3.234000000     5.679000000
O    -3.214000000     2.648000000    -3.809000000
H    -3.297000000     2.452000000    -2.876000000
H    -2.759000000     3.489000000    -3.838000000
O    -2.012000000     5.609000000     3.530000000
H    -2.387000000     5.046000000     4.208000000
H    -2.470000000     6.443000000     3.631000000
O     6.403000000    -4.571000000    -0.753000000
H     5.946000000    -4.037000000    -1.403000000
H     6.188000000    -4.162000000     0.086000000
O    -5.113000000    -0.110000000    -2.952000000
H    -4.743000000    -0.123000000    -3.835000000
H    -5.066000000     0.809000000    -2.687000000
O    -0.729000000    -2.007000000    -4.098000000
H    -0.347000000    -2.874000000    -4.235000000
H    -1.359000000    -2.133000000    -3.388000000
O     3.457000000     2.095000000    -1.649000000
H     3.404000000     2.372000000    -0.734000000
H     2.551000000     2.106000000    -1.956000000
O    -1.801000000     5.298000000    -3.296000000
H    -2.543000000     5.731000000    -2.873000000
H    -1.914000000     5.485000000    -4.228000000
O     3.652000000    -4.941000000     1.084000000
H     3.127000000    -4.208000000     0.763000000
H     3.715000000    -4.796000000     2.028000000
O    -0.848000000     2.485000000    -6.263000000
H    -0.190000000     3.009000000    -5.806000000
H    -0.602000000     1.578000000    -6.079000000
O     3.021000000    -0.813000000    -5.166000000
H     3.351000000    -1.039000000    -4.296000000
H     2.517000000    -0.011000000    -5.029000000
O     1.886000000     0.257000000     5.603000000
H     1.984000000    -0.636000000     5.274000000
H     1.789000000     0.793000000     4.816000000
O     4.277000000    -1.559000000    -0.369000000
H     4.777000000    -2.037000000    -1.031000000
H     3.520000000    -2.117000000    -0.192000000
O     4.894000000    -0.065000000    -3.026000000
H     4.465000000     0.644000000    -2.546000000
H     5.643000000     0.353000000    -3.451000000
O    -2.532000000    -1.709000000     6.080000000
H    -3.197000000    -1.313000000     5.517000000
H    -1.751000000    -1.174000000     5.940000000
O     0.635000000    -8.213000000     0.010000000
H     0.534000000    -7.285000000    -0.198000000
H     0.823000000    -8.629000000    -0.831000000
O    -1.480000000     2.688000000     4.641000000
H    -2.120000000     2.407000000     3.986000000
H    -1.932000000     3.367000000     5.141000000
O    -2.650000000    -6.330000000     1.378000000
H    -2.438000000    -6.567000000     0.475000000
H    -2.379000000    -5.415000000     1.455000000
O    -0.728000000     0.814000000     6.449000000
H    -0.937000000     1.432000000     5.748000000
H     0.213000000     0.660000000     6.361000000
O    -4.405000000     5.163000000    -0.670000000
H    -5.245000000     5.606000000    -0.553000000
H    -4.250000000     4.718000000     0.163000000
O    -3.455000000     4.003000000     1.413000000
H    -3.523000000     3.097000000     1.712000000
H    -2.742000000     4.374000000     1.933000000
O    -1.785000000    -3.473000000     2.160000000
H    -0.878000000    -3.699000000     1.952000000
H    -1.755000000    -3.175000000     3.069000000
O    -3.403000000     1.697000000     3.004000000
H    -4.059000000     1.559000000     3.686000000
H    -3.784000000     1.301000000     2.220000000
O    -5.283000000     2.588000000    -1.568000000
H    -4.828000000     3.429000000    -1.521000000
H    -6.197000000     2.818000000    -1.735000000
O     2.140000000     1.679000000    -4.602000000
H     2.435000000     2.519000000    -4.250000000
H     2.198000000     1.784000000    -5.551000000
O    -0.093000000     6.920000000     0.497000000
H    -1.034000000     6.754000000     0.559000000
H     0.173000000     6.489000000    -0.316000000
