161
-3039.64481
C     0.264000000    -0.216000000     1.455000000
H     0.392000000    -0.372000000     2.523000000
C    -0.375000000     0.899000000     0.931000000
H    -0.847000000     1.639000000     1.572000000
C    -0.520000000     1.039000000    -0.438000000
C    -1.128000000     2.160000000    -1.120000000
H    -0.583000000     2.618000000    -1.948000000
H    -2.127000000     1.894000000    -1.471000000
H    -1.289000000     2.929000000    -0.361000000
C     0.006000000     0.068000000    -1.291000000
H    -0.169000000     0.095000000    -2.363000000
C     0.544000000    -1.079000000    -0.734000000
H     0.723000000    -1.906000000    -1.415000000
C     0.648000000    -1.252000000     0.664000000
C     1.361000000    -2.450000000     1.149000000
O     1.884000000    -3.312000000     0.478000000
O     1.221000000    -2.754000000     2.362000000
O    -2.211000000     6.363000000    -1.214000000
H    -2.624000000     5.619000000    -1.654000000
H    -2.729000000     7.120000000    -1.487000000
O     0.737000000     6.297000000     0.220000000
H    -0.174000000     6.519000000     0.027000000
H     0.718000000     5.967000000     1.119000000
O    -6.177000000     2.703000000    -0.121000000
H    -6.066000000     2.092000000    -0.849000000
H    -7.072000000     2.552000000     0.184000000
O     0.210000000    -5.354000000     0.505000000
H     0.808000000    -4.607000000     0.484000000
H    -0.129000000    -5.414000000    -0.388000000
O     5.149000000    -3.126000000    -2.573000000
H     4.942000000    -2.744000000    -3.425000000
H     5.822000000    -3.780000000    -2.760000000
O     2.386000000    -4.823000000    -5.269000000
H     1.831000000    -4.170000000    -4.842000000
H     2.528000000    -5.492000000    -4.598000000
O     2.517000000     2.324000000    -0.561000000
H     3.410000000     2.666000000    -0.590000000
H     2.395000000     2.049000000     0.348000000
O     0.163000000    -5.249000000     3.187000000
H     0.416000000    -4.326000000     3.175000000
H    -0.132000000    -5.429000000     2.295000000
O     2.253000000    -3.944000000    -2.061000000
H     2.974000000    -3.580000000    -2.574000000
H     2.416000000    -3.638000000    -1.169000000
O     0.171000000     3.262000000     5.303000000
H     0.683000000     3.841000000     4.738000000
H    -0.655000000     3.141000000     4.835000000
O     0.006000000     0.751000000    -5.766000000
H     0.303000000     1.178000000    -4.962000000
H    -0.178000000     1.474000000    -6.367000000
O    -2.811000000    -0.873000000     0.632000000
H    -1.925000000    -1.159000000     0.854000000
H    -2.816000000     0.064000000     0.827000000
O     0.650000000    -2.650000000     6.218000000
H     0.863000000    -2.585000000     5.287000000
H    -0.305000000    -2.714000000     6.241000000
O    -2.789000000    -4.785000000     4.335000000
H    -2.019000000    -4.511000000     3.837000000
H    -3.386000000    -5.141000000     3.677000000
O     2.698000000    -0.681000000     3.686000000
H     2.342000000    -1.485000000     3.307000000
H     3.223000000    -0.978000000     4.429000000
O     2.007000000    -7.397000000     1.696000000
H     1.488000000    -6.728000000     1.250000000
H     1.515000000    -8.208000000     1.567000000
O     2.607000000    -0.607000000    -3.666000000
H     1.878000000    -1.207000000    -3.821000000
H     3.206000000    -0.765000000    -4.396000000
O     3.208000000     5.707000000    -3.769000000
H     2.807000000     5.083000000    -3.165000000
H     2.660000000     6.489000000    -3.704000000
O     4.855000000    -3.607000000     4.809000000
H     5.691000000    -4.036000000     4.630000000
H     4.199000000    -4.289000000     4.662000000
O    -3.021000000     3.328000000    -4.038000000
H    -3.478000000     4.025000000    -3.567000000
H    -2.113000000     3.626000000    -4.085000000
O     4.450000000    -5.473000000    -0.358000000
H     4.118000000    -4.890000000    -1.040000000
H     4.250000000    -5.021000000     0.462000000
O    -0.768000000    -1.395000000    -7.496000000
H    -1.066000000    -0.865000000    -6.756000000
H    -1.040000000    -2.286000000    -7.277000000
O    -6.539000000     1.001000000    -2.238000000
H    -7.070000000     0.464000000    -2.826000000
H    -5.675000000     0.590000000    -2.254000000
O    -1.684000000    -3.634000000    -4.924000000
H    -2.523000000    -3.220000000    -4.720000000
H    -1.715000000    -3.785000000    -5.868000000
O    -4.328000000     1.034000000    -4.811000000
H    -3.787000000     1.790000000    -4.583000000
H    -4.212000000     0.428000000    -4.078000000
O    -3.986000000    -0.323000000    -2.254000000
H    -3.516000000    -0.374000000    -1.422000000
H    -4.230000000    -1.229000000    -2.447000000
O     6.167000000    -1.408000000    -0.457000000
H     5.561000000    -0.723000000    -0.740000000
H     6.067000000    -2.101000000    -1.110000000
O     1.429000000     4.578000000    -1.949000000
H     1.011000000     5.263000000    -1.426000000
H     1.761000000     3.953000000    -1.304000000
O    -4.279000000     5.436000000    -2.926000000
H    -4.804000000     5.332000000    -2.132000000
H    -4.776000000     6.054000000    -3.462000000
O     4.009000000    -4.053000000     1.884000000
H     3.266000000    -3.608000000     1.476000000
H     3.978000000    -3.781000000     2.801000000
O     1.521000000     2.532000000    -4.274000000
H     2.060000000     1.747000000    -4.178000000
H     1.501000000     2.917000000    -3.397000000
O     2.862000000     1.974000000     5.265000000
H     3.365000000     1.319000000     4.781000000
H     1.967000000     1.876000000     4.941000000
O     3.120000000     1.585000000     2.027000000
H     2.613000000     0.939000000     2.519000000
H     3.995000000     1.203000000     1.960000000
O     4.283000000     0.237000000    -1.391000000
H     3.784000000     1.034000000    -1.215000000
H     3.631000000    -0.389000000    -1.707000000
O    -2.476000000    -0.612000000     4.033000000
H    -3.053000000     0.129000000     3.848000000
H    -1.630000000    -0.213000000     4.234000000
O     3.134000000    -5.620000000     4.586000000
H     2.369000000    -5.710000000     4.017000000
H     2.932000000    -6.166000000     5.346000000
O     0.502000000    -1.880000000    -4.766000000
H     0.261000000    -1.009000000    -5.080000000
H    -0.303000000    -2.392000000    -4.838000000
O    -2.312000000     2.949000000     4.386000000
H    -2.928000000     2.930000000     3.653000000
H    -2.636000000     3.650000000     4.952000000
O    -3.521000000    -4.258000000     1.315000000
H    -3.325000000    -4.710000000     0.495000000
H    -2.733000000    -3.749000000     1.503000000
O    -0.191000000     0.546000000     4.843000000
H    -0.078000000     1.461000000     5.100000000
H     0.415000000     0.063000000     5.405000000
O    -5.642000000     5.202000000    -0.768000000
H    -5.439000000     5.889000000    -0.134000000
H    -5.647000000     4.395000000    -0.254000000
O    -3.193000000     5.364000000     3.042000000
H    -3.026000000     6.215000000     2.637000000
H    -2.355000000     5.117000000     3.435000000
O    -1.441000000    -2.725000000     2.841000000
H    -0.487000000    -2.681000000     2.910000000
H    -1.754000000    -2.005000000     3.389000000
O    -4.068000000     2.225000000     2.334000000
H    -4.823000000     2.038000000     2.891000000
H    -4.429000000     2.270000000     1.448000000
O    -0.647000000    -4.538000000    -2.293000000
H    -0.882000000    -4.034000000    -3.071000000
H     0.257000000    -4.284000000    -2.106000000
O    -0.457000000     4.516000000    -4.891000000
H     0.143000000     3.914000000    -4.450000000
H     0.055000000     4.877000000    -5.615000000
O    -3.187000000    -5.428000000    -1.406000000
H    -2.261000000    -5.411000000    -1.650000000
H    -3.414000000    -6.358000000    -1.389000000
O     5.877000000    -1.589000000     3.473000000
H     6.464000000    -2.085000000     2.902000000
H     5.522000000    -2.241000000     4.077000000
