161
-3047.61000
C    -0.058000000    -1.369000000    -0.376000000
H    -0.225000000    -2.378000000    -0.744000000
C    -0.841000000    -0.359000000    -0.914000000
H    -1.620000000    -0.563000000    -1.644000000
C    -0.615000000     0.903000000    -0.481000000
C    -1.482000000     1.989000000    -1.151000000
H    -0.859000000     2.613000000    -1.796000000
H    -2.162000000     1.489000000    -1.843000000
H    -1.956000000     2.611000000    -0.388000000
C     0.365000000     1.210000000     0.477000000
H     0.661000000     2.225000000     0.726000000
C     1.046000000     0.183000000     1.103000000
H     1.766000000     0.540000000     1.835000000
C     0.796000000    -1.155000000     0.711000000
C     1.543000000    -2.330000000     1.337000000
O     2.402000000    -2.157000000     2.165000000
O     1.242000000    -3.458000000     0.990000000
O     2.587000000     2.142000000    -6.023000000
H     2.359000000     1.244000000    -6.261000000
H     2.210000000     2.263000000    -5.152000000
O     2.084000000    -6.078000000     1.279000000
H     1.765000000    -5.180000000     1.187000000
H     1.462000000    -6.493000000     1.876000000
O    -2.871000000    -2.124000000     1.917000000
H    -2.136000000    -2.583000000     2.324000000
H    -3.521000000    -2.808000000     1.756000000
O    -1.319000000    -2.289000000     5.176000000
H    -1.050000000    -2.948000000     4.536000000
H    -0.734000000    -1.548000000     5.016000000
O     5.969000000    -0.491000000     2.053000000
H     6.215000000    -1.075000000     1.336000000
H     6.772000000    -0.011000000     2.257000000
O    -4.774000000    -0.565000000     0.906000000
H    -3.899000000    -0.804000000     1.209000000
H    -4.905000000    -1.088000000     0.115000000
O    -3.627000000    -0.595000000    -5.532000000
H    -4.356000000     0.024000000    -5.515000000
H    -3.000000000    -0.210000000    -6.144000000
O     4.112000000    -1.383000000     6.769000000
H     4.049000000    -1.064000000     5.869000000
H     3.763000000    -0.668000000     7.301000000
O     0.811000000    -7.246000000     3.211000000
H     1.648000000    -7.678000000     3.383000000
H     0.153000000    -7.905000000     3.431000000
O     1.538000000    -7.862000000    -0.703000000
H     1.999000000    -7.407000000     0.001000000
H     0.835000000    -7.264000000    -0.955000000
O    -1.012000000    -6.521000000     0.307000000
H    -1.374000000    -6.112000000     1.093000000
H    -1.380000000    -7.404000000     0.305000000
O    -2.860000000     7.771000000    -0.718000000
H    -3.723000000     7.620000000    -0.334000000
H    -2.625000000     6.934000000    -1.118000000
O    -5.618000000    -2.307000000    -0.936000000
H    -6.457000000    -1.909000000    -1.167000000
H    -5.475000000    -2.973000000    -1.608000000
O     6.314000000     3.208000000     1.024000000
H     6.265000000     3.174000000     1.979000000
H     5.740000000     2.501000000     0.729000000
O     2.983000000     3.943000000    -1.125000000
H     2.101000000     4.291000000    -0.995000000
H     3.275000000     4.332000000    -1.949000000
O    -1.473000000    -3.733000000    -2.554000000
H    -0.559000000    -4.012000000    -2.501000000
H    -1.829000000    -3.912000000    -1.684000000
O    -2.276000000     0.768000000     2.001000000
H    -2.255000000    -0.178000000     1.859000000
H    -1.396000000     1.065000000     1.770000000
O     2.901000000    -0.014000000    -1.927000000
H     2.061000000    -0.231000000    -1.522000000
H     3.138000000    -0.799000000    -2.421000000
O    -5.035000000     2.100000000     0.869000000
H    -5.047000000     2.345000000     1.794000000
H    -4.746000000     1.188000000     0.866000000
O     3.981000000    -0.701000000     3.762000000
H     3.364000000    -0.941000000     3.071000000
H     4.818000000    -0.598000000     3.310000000
O     5.640000000     2.817000000     3.824000000
H     4.750000000     2.563000000     3.583000000
H     5.531000000     3.628000000     4.321000000
O     1.561000000    -1.515000000     4.795000000
H     1.782000000    -1.602000000     3.867000000
H     2.370000000    -1.737000000     5.255000000
O     0.404000000     0.563000000     6.125000000
H     0.687000000     1.317000000     5.609000000
H     0.669000000    -0.196000000     5.605000000
O    -0.881000000    -3.969000000     2.641000000
H    -0.263000000    -3.747000000     1.945000000
H    -0.697000000    -4.887000000     2.841000000
O    -2.148000000     5.269000000    -1.414000000
H    -2.958000000     4.805000000    -1.200000000
H    -2.196000000     5.411000000    -2.359000000
O     1.398000000     2.526000000     4.363000000
H     1.451000000     3.351000000     3.879000000
H     2.126000000     2.004000000     4.024000000
O     3.494000000    -4.441000000    -2.131000000
H     4.136000000    -5.150000000    -2.160000000
H     2.675000000    -4.849000000    -2.414000000
O    -1.483000000    -1.973000000    -4.635000000
H    -1.533000000    -2.465000000    -3.816000000
H    -2.192000000    -1.332000000    -4.574000000
O     4.420000000    -2.907000000     0.030000000
H     3.860000000    -2.880000000     0.806000000
H     4.193000000    -3.731000000    -0.401000000
O    -1.714000000     5.605000000    -4.140000000
H    -1.982000000     5.349000000    -5.023000000
H    -0.760000000     5.524000000    -4.146000000
O    -1.145000000     3.339000000     4.465000000
H    -1.020000000     3.814000000     3.644000000
H    -0.417000000     2.719000000     4.497000000
O     0.727000000     5.325000000    -1.228000000
H    -0.148000000     4.961000000    -1.090000000
H     0.571000000     6.166000000    -1.656000000
O     1.680000000     1.973000000    -3.610000000
H     1.408000000     1.068000000    -3.460000000
H     1.878000000     2.312000000    -2.737000000
O     3.601000000    -4.046000000     3.767000000
H     2.772000000    -4.417000000     4.066000000
H     3.349000000    -3.379000000     3.128000000
O     1.263000000     4.446000000     2.281000000
H     0.537000000     5.010000000     2.551000000
H     1.818000000     5.012000000     1.745000000
O     4.854000000     1.050000000     0.057000000
H     4.079000000     0.964000000    -0.499000000
H     5.385000000     0.282000000    -0.152000000
O     6.594000000    -1.415000000    -0.559000000
H     7.378000000    -1.919000000    -0.776000000
H     5.922000000    -2.077000000    -0.397000000
O     5.424000000    -6.323000000     3.975000000
H     5.028000000    -5.451000000     3.971000000
H     4.876000000    -6.837000000     3.381000000
O     3.467000000     2.241000000     2.314000000
H     2.858000000     2.683000000     1.722000000
H     4.018000000     1.710000000     1.738000000
O    -0.237000000     2.159000000    -6.643000000
H    -0.106000000     1.780000000    -5.774000000
H    -1.148000000     2.452000000    -6.642000000
O     4.734000000    -6.874000000     1.376000000
H     3.855000000    -6.546000000     1.188000000
H     4.881000000    -7.557000000     0.721000000
O    -4.527000000     3.590000000    -1.254000000
H    -5.003000000     3.209000000    -1.993000000
H    -4.686000000     2.985000000    -0.530000000
O    -6.128000000     2.799000000    -3.353000000
H    -6.078000000     1.870000000    -3.578000000
H    -7.064000000     2.999000000    -3.368000000
O     0.643000000    -4.955000000    -1.245000000
H     0.267000000    -5.694000000    -0.767000000
H     0.873000000    -4.322000000    -0.565000000
O    -1.807000000    -5.892000000    -4.541000000
H    -0.907000000    -5.881000000    -4.866000000
H    -1.839000000    -5.180000000    -3.902000000
O    -4.378000000     4.100000000     2.898000000
H    -4.262000000     4.476000000     2.026000000
H    -3.511000000     3.768000000     3.133000000
O     0.657000000    -0.517000000    -3.870000000
H    -0.106000000    -1.056000000    -4.078000000
H     1.075000000    -0.358000000    -4.717000000
O     5.995000000    -2.880000000     4.988000000
H     5.760000000    -2.149000000     5.560000000
H     5.156000000    -3.222000000     4.680000000
