161
-3043.07176
C    -1.055000000    -0.933000000    -0.594000000
H    -1.955000000    -1.416000000    -0.966000000
C    -0.994000000     0.489000000    -0.731000000
H    -1.780000000     1.116000000    -1.144000000
C     0.152000000     1.167000000    -0.275000000
C     0.209000000     2.686000000    -0.440000000
H     0.459000000     3.092000000     0.543000000
H     0.981000000     2.989000000    -1.151000000
H    -0.704000000     3.182000000    -0.775000000
C     1.204000000     0.482000000     0.407000000
H     1.967000000     1.128000000     0.833000000
C     0.989000000    -0.865000000     0.757000000
H     1.680000000    -1.439000000     1.370000000
C    -0.123000000    -1.556000000     0.191000000
C    -0.288000000    -3.000000000     0.527000000
O     0.371000000    -3.448000000     1.419000000
O    -1.108000000    -3.675000000     0.034000000
O     1.173000000    -6.041000000     2.162000000
H     1.679000000    -6.082000000     1.351000000
H     0.634000000    -5.255000000     2.069000000
O    -6.577000000     0.131000000     1.175000000
H    -5.869000000     0.090000000     0.531000000
H    -6.691000000    -0.774000000     1.463000000
O    -1.035000000     0.328000000     2.683000000
H    -0.849000000    -0.524000000     3.078000000
H    -0.346000000     0.443000000     2.028000000
O     6.119000000    -2.445000000     0.675000000
H     5.797000000    -2.589000000    -0.215000000
H     5.785000000    -1.580000000     0.913000000
O    -4.339000000    -1.631000000     1.894000000
H    -3.506000000    -1.502000000     1.440000000
H    -4.142000000    -1.447000000     2.813000000
O     3.219000000     2.456000000    -5.264000000
H     4.143000000     2.210000000    -5.320000000
H     2.826000000     1.784000000    -4.708000000
O    -0.307000000     8.162000000    -0.019000000
H    -0.680000000     8.972000000    -0.367000000
H    -0.222000000     7.591000000    -0.782000000
O     0.845000000    -6.120000000     5.518000000
H     0.219000000    -6.379000000     4.842000000
H     0.822000000    -6.836000000     6.153000000
O    -0.306000000    -6.986000000    -1.337000000
H    -0.990000000    -6.802000000    -0.693000000
H     0.303000000    -7.566000000    -0.880000000
O    -5.122000000    -4.929000000     2.193000000
H    -4.478000000    -5.115000000     2.876000000
H    -5.016000000    -3.996000000     2.010000000
O     1.528000000     5.716000000     1.181000000
H     1.777000000     6.498000000     1.673000000
H     1.689000000     4.991000000     1.785000000
O    -5.134000000    -3.270000000    -3.679000000
H    -4.673000000    -2.810000000    -4.380000000
H    -4.438000000    -3.648000000    -3.142000000
O     4.876000000     5.054000000    -0.042000000
H     5.357000000     4.836000000    -0.841000000
H     4.243000000     5.717000000    -0.317000000
O     5.651000000     3.286000000    -3.194000000
H     4.917000000     2.790000000    -2.832000000
H     6.381000000     3.098000000    -2.604000000
O     0.414000000     5.721000000    -1.271000000
H    -0.445000000     5.404000000    -0.991000000
H     0.923000000     5.781000000    -0.462000000
O    -2.420000000     2.526000000     2.937000000
H    -1.818000000     1.782000000     2.925000000
H    -2.090000000     3.090000000     3.636000000
O     4.050000000    -2.030000000    -1.338000000
H     3.569000000    -2.592000000    -0.730000000
H     4.019000000    -1.162000000    -0.936000000
O     1.839000000     0.948000000    -3.748000000
H     1.009000000     1.256000000    -4.112000000
H     1.732000000     0.000000000    -3.677000000
O    -4.475000000     1.390000000    -0.935000000
H    -5.210000000     1.989000000    -1.070000000
H    -4.716000000     0.601000000    -1.419000000
O     3.235000000    -1.790000000     5.225000000
H     2.326000000    -1.604000000     5.461000000
H     3.193000000    -2.615000000     4.742000000
O     3.308000000     1.499000000     3.868000000
H     3.103000000     0.629000000     3.526000000
H     3.051000000     1.461000000     4.790000000
O    -3.604000000    -2.183000000     4.463000000
H    -3.809000000    -3.095000000     4.670000000
H    -2.648000000    -2.153000000     4.435000000
O    -0.673000000    -7.572000000     3.588000000
H    -0.480000000    -8.499000000     3.447000000
H    -0.147000000    -7.115000000     2.932000000
O    -3.018000000    -6.375000000     3.758000000
H    -2.086000000    -6.553000000     3.637000000
H    -3.215000000    -6.715000000     4.631000000
O    -5.316000000     2.098000000    -4.126000000
H    -5.923000000     1.860000000    -3.426000000
H    -5.079000000     3.006000000    -3.939000000
O    -1.406000000     6.448000000     1.829000000
H    -1.201000000     6.978000000     1.059000000
H    -1.093000000     5.571000000     1.606000000
O    -3.041000000    -4.247000000    -1.603000000
H    -2.221000000    -4.175000000    -1.115000000
H    -3.469000000    -5.022000000    -1.239000000
O     1.585000000    -1.735000000    -3.683000000
H     1.187000000    -2.554000000    -3.387000000
H     2.527000000    -1.895000000    -3.636000000
O     2.310000000     3.872000000     3.018000000
H     2.760000000     3.256000000     3.595000000
H     1.814000000     4.437000000     3.611000000
O     2.691000000    -3.812000000     0.238000000
H     1.884000000    -3.708000000     0.743000000
H     2.658000000    -4.714000000    -0.082000000
O     1.630000000     4.573000000    -3.452000000
H     1.387000000     5.236000000    -2.806000000
H     2.560000000     4.413000000    -3.292000000
O     0.067000000     2.959000000    -4.847000000
H     0.772000000     3.330000000    -4.315000000
H    -0.728000000     3.124000000    -4.340000000
O    -1.618000000    -3.655000000    -3.998000000
H    -2.264000000    -3.725000000    -3.295000000
H    -0.794000000    -3.925000000    -3.594000000
O    -2.332000000     5.740000000    -1.137000000
H    -2.524000000     4.945000000    -0.640000000
H    -3.192000000     6.102000000    -1.351000000
O     4.790000000    -0.134000000     1.174000000
H     4.184000000     0.576000000     0.961000000
H     5.655000000     0.274000000     1.145000000
O     2.020000000    -3.927000000     4.104000000
H     1.445000000    -4.518000000     4.589000000
H     1.582000000    -3.805000000     3.261000000
O     3.988000000     2.652000000     1.050000000
H     3.227000000     2.893000000     1.578000000
H     4.174000000     3.434000000     0.529000000
O    -0.947000000    -2.332000000     3.597000000
H    -0.610000000    -2.857000000     2.872000000
H    -0.362000000    -2.530000000     4.328000000
O     1.824000000     6.384000000    -5.527000000
H     1.620000000     5.645000000    -6.100000000
H     1.734000000     6.033000000    -4.641000000
O     5.963000000     2.870000000     3.902000000
H     5.393000000     2.685000000     3.156000000
H     5.390000000     3.292000000     4.542000000
O     4.001000000     1.497000000    -1.958000000
H     3.711000000     1.579000000    -1.049000000
H     3.191000000     1.421000000    -2.462000000
O    -2.923000000     3.628000000     0.448000000
H    -3.339000000     2.912000000    -0.033000000
H    -2.809000000     3.286000000     1.335000000
O     3.045000000    -6.574000000     0.438000000
H     2.577000000    -7.199000000    -0.117000000
H     3.859000000    -7.022000000     0.669000000
O    -5.945000000    -0.602000000    -2.441000000
H    -5.433000000    -1.037000000    -3.122000000
H    -6.618000000    -1.240000000    -2.203000000
O     5.229000000    -4.542000000     2.345000000
H     4.340000000    -4.846000000     2.163000000
H     5.424000000    -3.933000000     1.633000000
O     0.860000000    -4.484000000    -2.721000000
H     1.655000000    -4.979000000    -2.920000000
H     0.306000000    -5.103000000    -2.246000000
O    -1.892000000    -6.186000000     0.676000000
H    -2.407000000    -5.985000000     1.458000000
H    -1.423000000    -5.374000000     0.483000000
O     3.121000000    -7.281000000     4.155000000
H     2.861000000    -7.246000000     5.075000000
H     2.382000000    -6.896000000     3.683000000
