161
-3065.57824
C     1.015000000    -0.853000000     0.582000000
H     1.795000000    -1.331000000     1.171000000
C     0.308000000     0.168000000     1.228000000
H     0.506000000     0.237000000     2.295000000
C    -0.585000000     0.948000000     0.561000000
C    -1.202000000     2.150000000     1.229000000
H    -0.482000000     2.570000000     1.934000000
H    -1.347000000     2.949000000     0.499000000
H    -2.092000000     1.925000000     1.820000000
C    -0.891000000     0.573000000    -0.756000000
H    -1.678000000     1.053000000    -1.333000000
C    -0.239000000    -0.443000000    -1.454000000
H    -0.628000000    -0.687000000    -2.440000000
C     0.763000000    -1.167000000    -0.739000000
C     1.448000000    -2.325000000    -1.380000000
O     1.383000000    -2.564000000    -2.579000000
O     1.930000000    -3.201000000    -0.641000000
O    -0.752000000     3.361000000    -3.490000000
H    -0.445000000     2.678000000    -4.086000000
H    -1.647000000     3.102000000    -3.269000000
O     1.744000000     3.701000000     3.237000000
H     2.132000000     4.574000000     3.177000000
H     0.805000000     3.861000000     3.330000000
O    -1.118000000    -3.744000000    -3.328000000
H    -0.306000000    -3.660000000    -2.828000000
H    -0.865000000    -4.228000000    -4.115000000
O     2.601000000    -6.598000000    -5.628000000
H     2.228000000    -5.924000000    -5.060000000
H     3.471000000    -6.764000000    -5.264000000
O     0.135000000     5.663000000     1.267000000
H     0.103000000     5.075000000     0.512000000
H     0.522000000     6.469000000     0.925000000
O    -1.354000000    -2.191000000     3.123000000
H    -1.896000000    -2.803000000     2.624000000
H    -0.458000000    -2.501000000     2.988000000
O     3.526000000     1.015000000    -1.843000000
H     4.445000000     0.755000000    -1.900000000
H     3.281000000     0.834000000    -0.935000000
O     4.141000000    -1.329000000     2.742000000
H     4.669000000    -0.534000000     2.664000000
H     4.274000000    -1.787000000     1.912000000
O    -1.154000000     5.031000000     3.821000000
H    -0.665000000     5.307000000     3.046000000
H    -1.987000000     4.710000000     3.477000000
O     3.275000000     2.635000000     5.494000000
H     3.109000000     3.065000000     6.333000000
H     2.704000000     3.090000000     4.875000000
O     0.006000000     2.296000000    -5.794000000
H    -0.206000000     1.393000000    -6.030000000
H    -0.664000000     2.822000000    -6.231000000
O    -2.054000000     0.527000000    -4.398000000
H    -1.639000000    -0.104000000    -4.986000000
H    -2.582000000     1.080000000    -4.974000000
O    -1.035000000    -6.242000000    -0.241000000
H    -0.105000000    -6.016000000    -0.229000000
H    -1.074000000    -7.115000000     0.150000000
O    -2.682000000     2.027000000     5.094000000
H    -3.224000000     1.250000000     5.231000000
H    -1.861000000     1.829000000     5.544000000
O    -4.847000000     3.369000000    -2.993000000
H    -4.714000000     4.312000000    -2.892000000
H    -4.646000000     3.196000000    -3.912000000
O     1.865000000    -5.792000000    -0.742000000
H     1.937000000    -4.839000000    -0.801000000
H     1.855000000    -5.973000000     0.198000000
O     2.344000000    -0.532000000     5.443000000
H     2.930000000    -0.793000000     6.153000000
H     2.698000000     0.302000000     5.134000000
O     2.969000000    -0.610000000    -4.108000000
H     2.862000000    -0.077000000    -3.321000000
H     2.404000000    -1.369000000    -3.962000000
O     3.379000000    -5.313000000     4.316000000
H     3.053000000    -4.451000000     4.056000000
H     4.262000000    -5.145000000     4.646000000
O    -0.536000000     0.307000000     5.044000000
H    -0.974000000    -0.158000000     4.331000000
H     0.254000000    -0.205000000     5.215000000
O    -0.512000000    -0.190000000    -7.011000000
H    -1.234000000    -0.493000000    -7.561000000
H     0.038000000     0.327000000    -7.600000000
O     5.623000000    -6.959000000    -0.560000000
H     5.564000000    -7.823000000    -0.151000000
H     4.718000000    -6.649000000    -0.596000000
O     0.059000000     2.597000000     6.495000000
H    -0.025000000     2.046000000     5.716000000
H     0.772000000     2.199000000     6.994000000
O     5.967000000     1.178000000     1.914000000
H     5.081000000     1.449000000     1.673000000
H     6.433000000     1.998000000     2.078000000
O    -1.900000000    -2.368000000     6.158000000
H    -1.763000000    -2.408000000     5.212000000
H    -1.583000000    -3.211000000     6.482000000
O    -0.414000000     5.304000000     6.296000000
H    -0.819000000     5.204000000     5.435000000
H    -0.070000000     4.435000000     6.502000000
O     3.554000000     2.104000000     1.195000000
H     2.928000000     2.179000000     1.915000000
H     3.308000000     2.804000000     0.590000000
O    -3.963000000     2.567000000    -0.523000000
H    -4.275000000     2.698000000    -1.418000000
H    -3.275000000     3.222000000    -0.410000000
O     1.182000000    -6.773000000     1.950000000
H     0.402000000    -7.117000000     2.383000000
H     1.834000000    -6.705000000     2.648000000
O     0.647000000    -6.798000000    -2.855000000
H     1.048000000    -6.397000000    -3.625000000
H     1.230000000    -6.566000000    -2.132000000
O     2.970000000     4.182000000    -0.516000000
H     3.503000000     4.116000000    -1.309000000
H     2.133000000     4.534000000    -0.819000000
O     2.011000000    -2.867000000     3.694000000
H     1.573000000    -3.093000000     2.874000000
H     2.482000000    -2.057000000     3.500000000
O     4.288000000    -2.403000000     0.170000000
H     3.530000000    -2.735000000    -0.309000000
H     4.957000000    -3.079000000     0.059000000
O     0.615000000     4.895000000    -1.450000000
H     0.170000000     5.572000000    -1.960000000
H     0.511000000     4.098000000    -1.968000000
O     1.521000000    -4.549000000    -4.236000000
H     1.557000000    -3.886000000    -3.546000000
H     1.486000000    -4.046000000    -5.050000000
O    -4.064000000    -0.351000000    -0.369000000
H    -3.112000000    -0.451000000    -0.392000000
H    -4.206000000     0.595000000    -0.373000000
O     4.691000000    -6.085000000    -3.602000000
H     4.553000000    -5.141000000    -3.684000000
H     5.622000000    -6.208000000    -3.782000000
O    -3.826000000     3.507000000     3.072000000
H    -4.015000000     4.301000000     3.572000000
H    -3.448000000     2.904000000     3.712000000
O    -3.588000000    -2.862000000    -4.488000000
H    -4.317000000    -2.889000000    -3.868000000
H    -2.824000000    -3.114000000    -3.969000000
O     0.552000000    -3.615000000     1.673000000
H     0.293000000    -4.537000000     1.667000000
H     0.942000000    -3.470000000     0.812000000
O     4.410000000    -3.301000000    -3.388000000
H     3.501000000    -3.297000000    -3.088000000
H     4.532000000    -2.443000000    -3.794000000
O     5.663000000    -0.539000000    -1.338000000
H     6.458000000    -0.454000000    -0.812000000
H     5.154000000    -1.218000000    -0.894000000
O    -2.832000000    -4.473000000    -1.266000000
H    -2.122000000    -5.019000000    -0.930000000
H    -2.410000000    -3.895000000    -1.902000000
O    -5.860000000     2.176000000     1.270000000
H    -5.474000000     2.582000000     2.046000000
H    -5.300000000     2.461000000     0.547000000
O    -5.123000000     0.320000000    -3.555000000
H    -4.818000000     1.204000000    -3.355000000
H    -4.589000000    -0.249000000    -3.000000000
O     4.350000000    -2.864000000    -6.709000000
H     3.425000000    -2.750000000    -6.489000000
H     4.345000000    -3.449000000    -7.467000000
O     1.464000000    -2.595000000    -6.202000000
H     0.627000000    -2.307000000    -6.565000000
H     1.747000000    -1.868000000    -5.647000000
O     5.879000000    -4.327000000    -1.082000000
H     5.776000000    -4.189000000    -2.023000000
H     5.799000000    -5.274000000    -0.968000000
