161
-3073.68847
C    -0.873000000    -1.159000000    -0.360000000
H    -1.649000000    -1.867000000    -0.638000000
C    -1.252000000     0.185000000    -0.231000000
H    -2.287000000     0.509000000    -0.303000000
C    -0.330000000     1.196000000     0.088000000
C    -0.797000000     2.646000000     0.199000000
H    -1.870000000     2.798000000     0.336000000
H    -0.313000000     3.205000000     1.002000000
H    -0.657000000     3.100000000    -0.785000000
C     1.028000000     0.858000000     0.295000000
H     1.804000000     1.600000000     0.462000000
C     1.387000000    -0.510000000     0.243000000
H     2.412000000    -0.858000000     0.140000000
C     0.447000000    -1.544000000    -0.064000000
C     0.835000000    -2.990000000    -0.120000000
O     2.004000000    -3.250000000     0.077000000
O     0.116000000    -3.919000000    -0.335000000
O     3.218000000     2.150000000    -1.672000000
H     3.101000000     3.100000000    -1.653000000
H     3.839000000     1.971000000    -0.966000000
O    -4.036000000     1.841000000     1.320000000
H    -3.243000000     1.976000000     1.839000000
H    -4.697000000     2.387000000     1.746000000
O    -2.482000000    -0.713000000     3.268000000
H    -1.526000000    -0.760000000     3.259000000
H    -2.758000000    -1.340000000     2.598000000
O     3.146000000     4.095000000     2.270000000
H     3.339000000     5.020000000     2.426000000
H     3.245000000     3.986000000     1.325000000
O    -1.914000000     7.505000000    -2.108000000
H    -1.456000000     6.731000000    -2.437000000
H    -1.262000000     8.204000000    -2.149000000
O     4.804000000    -0.218000000    -1.355000000
H     4.043000000    -0.247000000    -1.934000000
H     5.306000000    -1.001000000    -1.579000000
O     1.008000000    -8.856000000     0.629000000
H     1.009000000    -7.957000000     0.301000000
H     1.780000000    -8.907000000     1.192000000
O    -4.187000000     2.512000000    -1.250000000
H    -4.010000000     2.425000000    -0.314000000
H    -3.933000000     1.666000000    -1.621000000
O     5.612000000    -1.273000000     3.622000000
H     5.720000000    -2.097000000     3.148000000
H     5.498000000    -0.616000000     2.935000000
O     5.995000000    -3.789000000     2.085000000
H     6.840000000    -4.087000000     2.422000000
H     5.923000000    -4.199000000     1.223000000
O     4.670000000    -5.017000000    -0.280000000
H     3.774000000    -4.866000000    -0.582000000
H     4.932000000    -5.833000000    -0.707000000
O     4.098000000    -4.990000000    -4.286000000
H     3.988000000    -4.364000000    -3.570000000
H     4.767000000    -4.598000000    -4.846000000
O     3.037000000    -1.526000000    -3.449000000
H     3.172000000    -2.403000000    -3.090000000
H     2.087000000    -1.413000000    -3.456000000
O     2.889000000    -0.265000000     4.347000000
H     3.208000000     0.632000000     4.253000000
H     3.654000000    -0.811000000     4.170000000
O     1.432000000    -6.106000000     0.635000000
H     1.312000000    -5.363000000     0.043000000
H     2.137000000    -5.833000000     1.222000000
O    -1.319000000    -4.263000000    -2.677000000
H    -2.275000000    -4.294000000    -2.642000000
H    -1.052000000    -4.074000000    -1.778000000
O    -3.978000000    -5.514000000    -2.685000000
H    -4.187000000    -4.581000000    -2.731000000
H    -4.448000000    -5.826000000    -1.911000000
O    -0.625000000    -3.324000000     2.723000000
H     0.149000000    -3.113000000     3.244000000
H    -0.290000000    -3.449000000     1.835000000
O     0.570000000     3.179000000    -4.552000000
H     0.536000000     2.225000000    -4.475000000
H    -0.250000000     3.413000000    -4.987000000
O    -1.042000000     0.934000000    -4.971000000
H    -0.385000000     0.667000000    -4.328000000
H    -0.968000000     0.287000000    -5.672000000
O     1.239000000     0.755000000    -3.003000000
H     1.866000000     1.445000000    -2.786000000
H     1.104000000     0.286000000    -2.180000000
O    -6.282000000     3.935000000    -2.473000000
H    -5.628000000     3.588000000    -1.867000000
H    -7.086000000     3.466000000    -2.252000000
O    -0.598000000    -6.424000000     2.445000000
H    -0.009000000    -6.416000000     1.690000000
H    -0.101000000    -5.992000000     3.140000000
O    -4.660000000    -0.458000000     0.108000000
H    -4.158000000     0.177000000     0.618000000
H    -4.631000000    -1.261000000     0.628000000
O    -2.218000000     2.285000000     3.393000000
H    -2.397000000     1.376000000     3.633000000
H    -1.306000000     2.280000000     3.101000000
O     1.491000000    -2.721000000     4.259000000
H     2.312000000    -2.950000000     3.824000000
H     1.588000000    -1.795000000     4.482000000
O     0.390000000    -0.220000000     3.158000000
H     0.388000000    -0.136000000     2.204000000
H     1.317000000    -0.196000000     3.398000000
O     5.433000000     0.999000000     1.038000000
H     5.149000000     0.865000000     0.134000000
H     6.373000000     1.167000000     0.971000000
O    -5.340000000    -0.072000000     3.636000000
H    -4.408000000    -0.274000000     3.555000000
H    -5.391000000     0.876000000     3.513000000
O     2.858000000    -5.788000000     2.989000000
H     2.537000000    -6.070000000     3.845000000
H     2.751000000    -4.837000000     2.994000000
O    -3.243000000     4.521000000    -2.588000000
H    -2.977000000     4.931000000    -1.765000000
H    -3.612000000     3.678000000    -2.327000000
O    -4.525000000    -2.691000000    -2.382000000
H    -5.121000000    -2.633000000    -1.636000000
H    -4.103000000    -1.832000000    -2.419000000
O     6.151000000    -2.758000000    -1.325000000
H     6.910000000    -2.696000000    -0.744000000
H     5.599000000    -3.431000000    -0.927000000
O    -3.937000000    -2.606000000     1.794000000
H    -3.908000000    -3.140000000     2.588000000
H    -3.820000000    -3.232000000     1.080000000
O     3.454000000    -3.113000000     2.334000000
H     4.394000000    -3.206000000     2.180000000
H     3.060000000    -3.188000000     1.465000000
O     4.456000000     2.055000000     4.252000000
H     5.382000000     2.061000000     4.010000000
H     4.018000000     2.516000000     3.536000000
O    -3.187000000     7.600000000     0.349000000
H    -2.763000000     7.772000000    -0.492000000
H    -2.520000000     7.147000000     0.864000000
O    -1.546000000     6.123000000     2.168000000
H    -1.725000000     6.461000000     3.046000000
H    -0.945000000     5.392000000     2.311000000
O     2.817000000    -3.939000000    -2.168000000
H     2.555000000    -3.635000000    -1.299000000
H     1.991000000    -4.111000000    -2.621000000
O    -3.025000000     0.603000000    -2.824000000
H    -2.190000000     0.509000000    -3.283000000
H    -3.655000000     0.812000000    -3.513000000
O     0.522000000     3.991000000     3.377000000
H     1.347000000     4.156000000     2.920000000
H     0.785000000     3.711000000     4.254000000
O    -2.347000000    -4.973000000     0.918000000
H    -1.688000000    -4.721000000     0.270000000
H    -1.869000000    -5.512000000     1.548000000
O    -1.412000000    -7.259000000    -2.131000000
H    -0.657000000    -6.700000000    -2.313000000
H    -2.151000000    -6.653000000    -2.071000000
O     3.413000000     4.737000000    -0.613000000
H     4.106000000     5.084000000    -1.174000000
H     2.831000000     5.482000000    -0.461000000
O    -0.369000000     5.262000000    -2.455000000
H    -0.304000000     4.339000000    -2.702000000
H     0.472000000     5.639000000    -2.712000000
O     1.990000000     7.039000000    -0.634000000
H     1.577000000     7.837000000    -0.303000000
H     1.621000000     6.923000000    -1.509000000
O    -0.016000000    -2.097000000    -3.871000000
H    -0.658000000    -2.757000000    -3.607000000
H    -0.167000000    -1.977000000    -4.808000000
O    -6.834000000    -0.093000000    -1.834000000
H    -7.328000000    -0.690000000    -1.272000000
H    -6.028000000     0.081000000    -1.348000000
