161
-3063.24106
C    -0.710000000    -1.238000000    -0.256000000
H    -1.299000000    -2.136000000    -0.423000000
C    -1.251000000     0.021000000    -0.198000000
H    -2.337000000     0.059000000    -0.209000000
C    -0.495000000     1.150000000    -0.010000000
C    -1.193000000     2.515000000     0.057000000
H    -1.145000000     2.921000000     1.070000000
H    -0.753000000     3.241000000    -0.631000000
H    -2.241000000     2.358000000    -0.205000000
C     0.926000000     1.018000000     0.007000000
H     1.599000000     1.851000000     0.196000000
C     1.514000000    -0.298000000     0.030000000
H     2.562000000    -0.443000000     0.281000000
C     0.702000000    -1.427000000    -0.057000000
C     1.249000000    -2.804000000     0.065000000
O     2.412000000    -3.043000000    -0.059000000
O     0.462000000    -3.748000000     0.334000000
O     2.738000000     3.701000000    -1.188000000
H     3.170000000     4.423000000    -0.731000000
H     3.402000000     3.013000000    -1.231000000
O    -5.076000000    -0.334000000     3.133000000
H    -5.220000000    -0.282000000     4.078000000
H    -5.404000000    -1.199000000     2.887000000
O    -4.749000000     3.216000000     1.364000000
H    -5.007000000     3.954000000     1.917000000
H    -3.923000000     2.913000000     1.741000000
O    -1.037000000    -0.430000000     3.507000000
H    -1.096000000    -0.372000000     4.461000000
H    -0.183000000    -0.054000000     3.296000000
O     1.089000000     3.701000000     3.183000000
H     1.883000000     3.947000000     3.659000000
H     1.125000000     4.216000000     2.376000000
O    -2.119000000     6.609000000     0.394000000
H    -2.684000000     6.267000000    -0.299000000
H    -2.235000000     7.558000000     0.352000000
O     4.721000000     1.943000000    -0.984000000
H     4.643000000     1.009000000    -1.176000000
H     5.236000000     1.980000000    -0.178000000
O     2.590000000    -8.123000000     1.294000000
H     3.439000000    -8.002000000     0.868000000
H     2.145000000    -7.283000000     1.183000000
O    -2.827000000     1.401000000     2.786000000
H    -2.017000000     0.931000000     2.981000000
H    -3.424000000     0.727000000     2.463000000
O    -4.860000000     0.571000000    -0.237000000
H    -5.249000000     0.987000000    -1.006000000
H    -4.326000000     1.257000000     0.163000000
O     0.693000000     5.367000000    -2.189000000
H     0.674000000     4.496000000    -1.792000000
H     1.621000000     5.601000000    -2.210000000
O    -3.493000000     0.686000000    -3.704000000
H    -4.064000000     0.411000000    -2.987000000
H    -3.416000000    -0.090000000    -4.259000000
O     6.290000000    -1.427000000     2.480000000
H     6.469000000    -1.188000000     3.389000000
H     6.740000000    -2.263000000     2.358000000
O     3.723000000    -1.144000000    -3.150000000
H     4.349000000    -1.490000000    -2.514000000
H     3.225000000    -1.909000000    -3.437000000
O    -6.192000000     1.849000000    -2.450000000
H    -5.720000000     2.121000000    -3.238000000
H    -6.344000000     2.663000000    -1.969000000
O     1.733000000    -5.628000000     1.765000000
H     1.367000000    -4.923000000     1.230000000
H     2.205000000    -5.176000000     2.465000000
O    -5.917000000    -5.000000000     0.175000000
H    -5.086000000    -4.661000000     0.506000000
H    -6.555000000    -4.317000000     0.384000000
O     2.461000000     3.812000000    -4.516000000
H     2.613000000     2.867000000    -4.522000000
H     2.025000000     3.979000000    -3.680000000
O     0.822000000    -4.987000000    -2.404000000
H    -0.099000000    -4.740000000    -2.488000000
H     1.041000000    -4.789000000    -1.493000000
O    -0.253000000    -2.931000000     2.961000000
H    -0.214000000    -3.110000000     2.021000000
H    -0.614000000    -2.046000000     3.021000000
O    -1.507000000     2.536000000    -3.655000000
H    -0.672000000     2.095000000    -3.496000000
H    -2.166000000     1.852000000    -3.532000000
O    -3.009000000    -1.851000000    -4.848000000
H    -3.139000000    -2.577000000    -5.457000000
H    -3.349000000    -2.175000000    -4.013000000
O     0.684000000     1.447000000    -3.031000000
H     0.806000000     0.801000000    -2.336000000
H     1.498000000     1.415000000    -3.534000000
O    -0.373000000    -1.697000000    -4.480000000
H    -1.297000000    -1.817000000    -4.698000000
H    -0.246000000    -0.748000000    -4.489000000
O    -0.366000000    -7.093000000     2.707000000
H     0.585000000    -7.150000000     2.624000000
H    -0.513000000    -6.311000000     3.240000000
O    -0.880000000     4.301000000     5.103000000
H    -1.657000000     4.630000000     4.651000000
H    -0.295000000     4.018000000     4.400000000
O     2.054000000    -3.576000000     4.161000000
H     1.241000000    -3.340000000     3.715000000
H     2.731000000    -3.074000000     3.708000000
O     3.419000000    -0.646000000     3.756000000
H     2.820000000    -0.033000000     3.330000000
H     4.259000000    -0.502000000     3.320000000
O    -4.209000000     2.372000000     4.933000000
H    -4.060000000     1.502000000     5.303000000
H    -3.822000000     2.329000000     4.059000000
O    -6.423000000     4.336000000    -1.008000000
H    -6.059000000     5.218000000    -1.081000000
H    -5.971000000     3.952000000    -0.257000000
O    -1.823000000    -4.522000000    -2.779000000
H    -2.558000000    -5.100000000    -2.571000000
H    -2.065000000    -3.680000000    -2.394000000
O    -2.211000000    -3.267000000     4.805000000
H    -1.662000000    -3.133000000     4.032000000
H    -3.007000000    -2.767000000     4.623000000
O     5.323000000    -0.544000000     0.124000000
H     5.756000000    -0.759000000     0.950000000
H     5.591000000    -1.240000000    -0.476000000
O    -4.282000000    -2.134000000     0.159000000
H    -4.430000000    -1.196000000     0.039000000
H    -4.584000000    -2.312000000     1.049000000
O     4.234000000    -3.686000000     1.877000000
H     5.031000000    -3.237000000     1.597000000
H     3.657000000    -3.649000000     1.115000000
O     1.207000000     1.043000000     2.938000000
H     1.002000000     0.994000000     2.005000000
H     1.121000000     1.972000000     3.154000000
O    -2.398000000     5.592000000     2.776000000
H    -2.409000000     5.708000000     1.826000000
H    -2.651000000     6.446000000     3.125000000
O     2.735000000     0.788000000    -4.673000000
H     3.591000000     1.142000000    -4.915000000
H     2.935000000    -0.001000000    -4.171000000
O     4.519000000    -3.257000000    -1.643000000
H     3.620000000    -3.156000000    -1.329000000
H     4.613000000    -4.196000000    -1.803000000
O    -4.135000000    -2.771000000    -2.398000000
H    -3.939000000    -2.583000000    -1.480000000
H    -5.011000000    -2.411000000    -2.535000000
O     6.164000000     3.036000000     1.159000000
H     6.248000000     2.808000000     2.085000000
H     5.672000000     3.857000000     1.158000000
O    -1.618000000    -5.488000000     0.667000000
H    -1.077000000    -5.803000000     1.390000000
H    -1.244000000    -4.636000000     0.442000000
O    -4.121000000     6.533000000    -1.740000000
H    -3.606000000     5.997000000    -2.342000000
H    -4.858000000     6.844000000    -2.266000000
O    -2.762000000    -7.773000000    -1.135000000
H    -2.144000000    -7.153000000    -0.748000000
H    -2.218000000    -8.504000000    -1.427000000
O     4.295000000     5.415000000     1.144000000
H     3.892000000     6.141000000     0.669000000
H     3.745000000     5.300000000     1.918000000
O    -2.350000000     5.239000000    -3.483000000
H    -1.664000000     5.793000000    -3.856000000
H    -1.905000000     4.419000000    -3.269000000
O     1.006000000     5.621000000     1.427000000
H     1.560000000     6.198000000     0.901000000
H     0.141000000     5.684000000     1.021000000
O     2.050000000    -3.331000000    -4.192000000
H     1.572000000    -3.693000000    -3.447000000
H     1.405000000    -2.795000000    -4.653000000
