161
-3068.32631
C    -0.628000000     1.363000000     0.142000000
H    -0.987000000     2.389000000     0.182000000
C    -0.056000000     0.800000000    -1.018000000
H    -0.169000000     1.383000000    -1.929000000
C     0.427000000    -0.481000000    -1.085000000
C     0.982000000    -1.062000000    -2.388000000
H     1.504000000    -0.237000000    -2.878000000
H     1.651000000    -1.896000000    -2.169000000
H     0.149000000    -1.441000000    -2.984000000
C     0.428000000    -1.246000000     0.063000000
H     0.533000000    -2.328000000     0.049000000
C    -0.026000000    -0.716000000     1.324000000
H    -0.075000000    -1.246000000     2.272000000
C    -0.521000000     0.602000000     1.321000000
C    -0.960000000     1.209000000     2.670000000
O    -0.346000000     0.932000000     3.641000000
O    -1.912000000     1.975000000     2.787000000
O     1.655000000     4.776000000     1.719000000
H     1.318000000     4.795000000     2.615000000
H     1.643000000     5.692000000     1.439000000
O    -1.277000000    -0.703000000    -6.364000000
H    -1.667000000    -0.631000000    -5.493000000
H    -0.705000000     0.061000000    -6.433000000
O    -1.792000000     4.458000000     2.809000000
H    -1.920000000     3.510000000     2.830000000
H    -2.027000000     4.712000000     1.916000000
O     0.822000000     0.128000000     8.195000000
H     1.371000000    -0.460000000     7.675000000
H    -0.010000000     0.158000000     7.724000000
O     2.755000000     0.900000000     0.901000000
H     1.922000000     0.888000000     0.429000000
H     3.291000000     0.244000000     0.456000000
O     0.479000000     2.348000000     5.697000000
H     1.430000000     2.245000000     5.676000000
H     0.172000000     1.894000000     4.912000000
O    -1.723000000    -3.475000000    -6.077000000
H    -2.668000000    -3.602000000    -5.988000000
H    -1.602000000    -2.528000000    -6.020000000
O    -3.117000000     5.631000000     5.651000000
H    -2.631000000     5.349000000     6.426000000
H    -2.960000000     4.941000000     5.006000000
O     4.646000000     2.738000000     2.567000000
H     5.108000000     2.019000000     2.996000000
H     3.725000000     2.476000000     2.584000000
O     4.082000000    -5.078000000     1.122000000
H     3.972000000    -4.905000000     0.187000000
H     3.334000000    -5.628000000     1.354000000
O    -2.512000000    -2.038000000    -1.591000000
H    -1.744000000    -1.760000000    -1.092000000
H    -3.131000000    -2.344000000    -0.928000000
O     0.082000000     4.376000000    -4.497000000
H     0.824000000     4.405000000    -3.892000000
H     0.165000000     5.176000000    -5.015000000
O    -4.514000000    -0.429000000     5.375000000
H    -5.146000000    -0.339000000     6.089000000
H    -4.750000000    -1.253000000     4.949000000
O     4.324000000    -0.857000000    -0.427000000
H     4.334000000    -1.011000000    -1.371000000
H     5.091000000    -0.307000000    -0.266000000
O    -1.952000000    -1.556000000     7.817000000
H    -1.965000000    -1.057000000     7.000000000
H    -1.778000000    -2.457000000     7.543000000
O    -2.333000000     4.829000000     0.128000000
H    -1.795000000     4.681000000    -0.649000000
H    -2.965000000     4.110000000     0.122000000
O     2.339000000     0.441000000     3.757000000
H     1.454000000     0.496000000     3.396000000
H     2.892000000     0.223000000     3.006000000
O    -2.557000000     2.677000000     5.337000000
H    -2.438000000     2.096000000     4.586000000
H    -1.667000000     2.923000000     5.593000000
O    -1.875000000     3.232000000    -3.021000000
H    -2.496000000     3.943000000    -3.176000000
H    -1.145000000     3.417000000    -3.611000000
O    -3.990000000     5.125000000    -2.474000000
H    -4.905000000     4.846000000    -2.429000000
H    -3.632000000     4.911000000    -1.613000000
O    -0.307000000    -7.016000000    -1.180000000
H    -0.485000000    -6.161000000    -1.573000000
H     0.005000000    -6.813000000    -0.298000000
O     4.578000000     3.107000000    -4.905000000
H     3.908000000     2.586000000    -5.349000000
H     5.137000000     2.461000000    -4.473000000
O     1.864000000    -3.360000000     3.218000000
H     2.369000000    -3.386000000     4.031000000
H     1.211000000    -4.052000000     3.320000000
O     3.543000000    -4.292000000    -1.575000000
H     2.975000000    -4.978000000    -1.924000000
H     3.034000000    -3.487000000    -1.670000000
O    -4.122000000     1.725000000    -2.771000000
H    -3.236000000     2.087000000    -2.744000000
H    -4.386000000     1.671000000    -1.853000000
O     4.436000000    -0.840000000    -3.215000000
H     4.318000000    -1.646000000    -3.718000000
H     5.371000000    -0.649000000    -3.286000000
O    -0.986000000    -4.372000000    -2.107000000
H    -1.718000000    -4.825000000    -2.526000000
H    -1.385000000    -3.611000000    -1.685000000
O    -0.329000000    -5.030000000     5.230000000
H    -0.709000000    -4.440000000     4.580000000
H    -0.577000000    -5.906000000     4.934000000
O     2.663000000    -1.116000000     6.354000000
H     2.445000000    -0.797000000     5.478000000
H     3.520000000    -0.733000000     6.542000000
O     0.746000000     4.950000000     4.457000000
H    -0.099000000     5.236000000     4.110000000
H     0.545000000     4.154000000     4.950000000
O     3.599000000    -1.160000000    -6.635000000
H     3.386000000    -1.980000000    -6.189000000
H     4.367000000    -1.370000000    -7.167000000
O    -4.379000000     1.371000000     2.793000000
H    -4.576000000     1.273000000     3.724000000
H    -3.469000000     1.666000000     2.770000000
O     0.276000000     1.283000000    -6.079000000
H     0.476000000     2.217000000    -6.135000000
H     0.969000000     0.922000000    -5.527000000
O    -5.231000000     4.634000000     2.704000000
H    -4.688000000     3.910000000     3.016000000
H    -4.735000000     5.421000000     2.929000000
O     0.807000000    -3.775000000    -4.422000000
H     0.329000000    -4.199000000    -3.709000000
H     0.293000000    -3.973000000    -5.205000000
O    -2.651000000    -0.468000000    -3.980000000
H    -2.647000000    -1.093000000    -3.255000000
H    -3.338000000     0.158000000    -3.753000000
O    -4.236000000     3.163000000    -0.285000000
H    -5.115000000     3.441000000    -0.027000000
H    -4.210000000     2.229000000    -0.077000000
O     4.045000000    -1.983000000     2.255000000
H     3.885000000    -1.764000000     1.338000000
H     3.382000000    -2.641000000     2.464000000
O    -1.707000000    -0.711000000     5.162000000
H    -1.095000000    -0.160000000     4.673000000
H    -2.550000000    -0.265000000     5.078000000
O     2.726000000     0.976000000    -4.941000000
H     2.885000000     0.365000000    -5.660000000
H     3.017000000     0.506000000    -4.159000000
O    -5.608000000    -1.119000000     2.508000000
H    -5.341000000    -0.206000000     2.618000000
H    -6.545000000    -1.074000000     2.321000000
O    -4.668000000     0.208000000     0.000000000
H    -5.617000000     0.084000000     0.031000000
H    -4.423000000     0.401000000     0.905000000
O    -1.518000000    -3.066000000     3.847000000
H    -1.423000000    -2.286000000     4.394000000
H    -1.987000000    -2.760000000     3.071000000
O     1.996000000    -6.112000000    -2.892000000
H     1.050000000    -6.254000000    -2.903000000
H     2.349000000    -6.806000000    -3.448000000
O     0.076000000     5.469000000    -1.361000000
H     0.481000000     6.273000000    -1.036000000
H     0.803000000     4.968000000    -1.731000000
O     2.475000000     4.200000000    -2.963000000
H     2.415000000     3.829000000    -2.083000000
H     3.303000000     3.866000000    -3.308000000
O     3.460000000    -3.097000000    -4.730000000
H     2.620000000    -3.478000000    -4.474000000
H     4.059000000    -3.842000000    -4.769000000
O     2.976000000     3.384000000    -0.111000000
H     2.927000000     2.491000000     0.230000000
H     2.427000000     3.897000000     0.482000000
