161
-3045.87501
C    -0.680000000     0.989000000     0.953000000
H    -1.177000000     1.785000000     1.501000000
C    -0.870000000     0.924000000    -0.466000000
H    -1.429000000     1.647000000    -1.054000000
C    -0.107000000     0.032000000    -1.198000000
C    -0.252000000    -0.109000000    -2.731000000
H     0.625000000    -0.540000000    -3.219000000
H    -1.116000000    -0.696000000    -3.047000000
H    -0.493000000     0.914000000    -3.028000000
C     0.609000000    -0.960000000    -0.586000000
H     1.253000000    -1.721000000    -1.018000000
C     0.637000000    -1.030000000     0.817000000
H     1.245000000    -1.865000000     1.156000000
C     0.065000000    -0.004000000     1.603000000
C     0.502000000     0.187000000     3.049000000
O     0.923000000    -0.805000000     3.704000000
O     0.265000000     1.259000000     3.556000000
O    -3.105000000     4.679000000     4.198000000
H    -2.548000000     3.905000000     4.281000000
H    -3.982000000     4.328000000     4.046000000
O     0.819000000     4.270000000     6.418000000
H     0.686000000     3.323000000     6.443000000
H     1.724000000     4.378000000     6.127000000
O    -2.483000000     0.628000000    -5.059000000
H    -2.982000000     0.723000000    -5.870000000
H    -1.587000000     0.451000000    -5.347000000
O     1.647000000     3.504000000     2.844000000
H     1.278000000     2.644000000     3.044000000
H     0.932000000     3.979000000     2.421000000
O    -1.568000000     0.201000000     6.520000000
H    -2.038000000    -0.614000000     6.342000000
H    -2.251000000     0.823000000     6.769000000
O     1.040000000     4.722000000    -0.114000000
H     0.697000000     4.932000000     0.755000000
H     1.402000000     3.841000000    -0.023000000
O    -1.922000000     2.173000000     4.526000000
H    -1.282000000     1.618000000     4.080000000
H    -1.831000000     1.948000000     5.452000000
O     4.112000000     3.886000000     1.747000000
H     3.277000000     4.033000000     2.190000000
H     4.185000000     2.933000000     1.685000000
O     6.297000000    -1.902000000     2.711000000
H     5.509000000    -2.060000000     3.232000000
H     6.531000000    -0.993000000     2.901000000
O    -0.145000000    -3.367000000    -6.794000000
H     0.213000000    -2.656000000    -7.325000000
H    -0.968000000    -3.596000000    -7.225000000
O    -3.377000000    -1.124000000     0.345000000
H    -3.652000000    -0.857000000    -0.532000000
H    -2.460000000    -0.854000000     0.401000000
O    -3.098000000    -2.013000000     5.300000000
H    -2.186000000    -2.300000000     5.328000000
H    -3.144000000    -1.434000000     4.539000000
O    -5.031000000     2.222000000     4.295000000
H    -5.704000000     2.122000000     3.621000000
H    -4.444000000     1.479000000     4.159000000
O     3.458000000     3.180000000    -2.917000000
H     2.951000000     2.967000000    -2.133000000
H     4.118000000     2.490000000    -2.971000000
O    -0.785000000     4.658000000     2.170000000
H    -1.369000000     4.518000000     2.916000000
H    -1.344000000     5.047000000     1.498000000
O     3.384000000    -1.809000000     4.544000000
H     2.598000000    -1.345000000     4.258000000
H     3.892000000    -1.150000000     5.018000000
O     1.147000000     1.572000000     5.944000000
H     0.875000000     1.916000000     5.094000000
H     0.801000000     0.680000000     5.964000000
O    -3.313000000     3.214000000    -4.810000000
H    -3.183000000     2.274000000    -4.686000000
H    -2.718000000     3.624000000    -4.183000000
O     3.526000000    -2.361000000    -3.383000000
H     2.705000000    -2.853000000    -3.382000000
H     3.271000000    -1.471000000    -3.626000000
O     3.786000000    -4.412000000     3.007000000
H     4.550000000    -4.469000000     2.433000000
H     3.683000000    -3.475000000     3.177000000
O     2.962000000     2.542000000     7.864000000
H     2.180000000     2.026000000     7.666000000
H     3.499000000     2.477000000     7.074000000
O    -5.677000000     3.313000000    -3.243000000
H    -4.904000000     3.335000000    -3.807000000
H    -5.778000000     2.389000000    -3.013000000
O     2.416000000     2.377000000    -0.208000000
H     2.976000000     2.729000000     0.484000000
H     2.264000000     1.467000000     0.045000000
O    -1.994000000     2.681000000    -7.181000000
H    -2.501000000     2.921000000    -6.405000000
H    -1.149000000     2.393000000    -6.834000000
O    -2.557000000    -4.542000000     1.126000000
H    -1.636000000    -4.786000000     1.028000000
H    -2.739000000    -4.666000000     2.058000000
O     1.261000000    -5.018000000     2.249000000
H     1.392000000    -5.296000000     1.342000000
H     2.103000000    -4.642000000     2.508000000
O    -1.388000000    -4.012000000    -1.777000000
H    -2.337000000    -4.141000000    -1.752000000
H    -1.225000000    -3.312000000    -1.144000000
O     2.939000000    -3.702000000     6.571000000
H     3.850000000    -3.622000000     6.854000000
H     2.836000000    -3.024000000     5.903000000
O     2.871000000     0.281000000    -4.235000000
H     3.512000000     0.635000000    -4.851000000
H     2.168000000     0.931000000    -4.222000000
O    -3.177000000    -0.464000000     3.215000000
H    -3.797000000    -0.566000000     2.493000000
H    -2.535000000     0.169000000     2.891000000
O    -5.825000000     0.515000000    -4.532000000
H    -5.024000000     0.762000000    -4.994000000
H    -6.123000000    -0.278000000    -4.979000000
O     1.393000000     2.833000000    -6.956000000
H     1.252000000     3.581000000    -7.537000000
H     1.352000000     3.204000000    -6.074000000
O     0.593000000     5.609000000    -2.434000000
H     0.526000000     5.313000000    -1.526000000
H     1.421000000     6.087000000    -2.470000000
O     1.021000000    -3.622000000    -3.692000000
H     0.698000000    -3.461000000    -4.579000000
H     0.569000000    -4.418000000    -3.413000000
O    -0.612000000    -6.715000000    -2.199000000
H    -0.798000000    -5.845000000    -1.846000000
H    -0.362000000    -6.555000000    -3.109000000
O    -4.973000000     4.478000000    -0.807000000
H    -5.416000000     4.529000000    -1.654000000
H    -5.142000000     3.587000000    -0.501000000
O     4.262000000     0.816000000     1.243000000
H     5.056000000     0.642000000     0.738000000
H     4.130000000     0.023000000     1.763000000
O    -0.564000000    -2.721000000     4.608000000
H     0.076000000    -3.140000000     5.184000000
H    -0.064000000    -2.051000000     4.142000000
O     5.778000000    -1.314000000    -2.292000000
H     4.961000000    -1.644000000    -2.667000000
H     6.406000000    -2.023000000    -2.424000000
O     0.196000000     0.301000000    -6.558000000
H     0.540000000    -0.448000000    -7.045000000
H     0.648000000     1.057000000    -6.932000000
O    -4.917000000     1.969000000     0.525000000
H    -4.916000000     1.275000000    -0.133000000
H    -5.695000000     1.796000000     1.055000000
O    -1.399000000    -5.133000000     3.677000000
H    -1.192000000    -4.231000000     3.922000000
H    -0.546000000    -5.552000000     3.564000000
O    -3.916000000    -0.403000000    -2.581000000
H    -4.597000000    -0.883000000    -3.053000000
H    -3.403000000     0.022000000    -3.268000000
O    -1.807000000     4.381000000    -2.802000000
H    -1.006000000     4.903000000    -2.829000000
H    -2.050000000     4.361000000    -1.876000000
O     1.488000000     4.115000000    -4.612000000
H     2.372000000     3.881000000    -4.329000000
H     1.030000000     4.343000000    -3.804000000
O     4.848000000    -2.808000000    -5.839000000
H     4.685000000    -3.748000000    -5.920000000
H     4.446000000    -2.567000000    -5.004000000
O     3.543000000     4.751000000     5.664000000
H     3.537000000     3.808000000     5.501000000
H     4.379000000     4.914000000     6.099000000
O    -2.595000000     5.377000000     0.072000000
H    -2.884000000     6.289000000     0.074000000
H    -3.404000000     4.869000000     0.012000000
