161
-3027.99597
C    -0.989000000     0.679000000     0.806000000
H    -1.815000000     1.154000000     1.330000000
C    -0.849000000     0.801000000    -0.563000000
H    -1.421000000     1.527000000    -1.136000000
C     0.190000000     0.113000000    -1.220000000
C     0.544000000     0.495000000    -2.649000000
H     1.102000000     1.433000000    -2.666000000
H     1.141000000    -0.321000000    -3.061000000
H    -0.400000000     0.546000000    -3.195000000
C     0.899000000    -0.822000000    -0.509000000
H     1.681000000    -1.326000000    -1.072000000
C     0.660000000    -0.943000000     0.831000000
H     1.233000000    -1.768000000     1.248000000
C    -0.201000000    -0.156000000     1.543000000
C    -0.550000000    -0.416000000     3.040000000
O    -0.058000000    -1.389000000     3.608000000
O    -1.173000000     0.401000000     3.666000000
O    -2.170000000     2.440000000     7.309000000
H    -3.054000000     2.726000000     7.082000000
H    -2.206000000     1.485000000     7.258000000
O    -0.330000000    -2.552000000    -4.509000000
H    -0.705000000    -3.053000000    -5.234000000
H    -0.316000000    -1.649000000    -4.824000000
O    -1.199000000     3.283000000     4.572000000
H    -1.220000000     2.335000000     4.441000000
H    -1.049000000     3.642000000     3.698000000
O    -2.240000000    -0.973000000     8.739000000
H    -2.386000000    -0.902000000     7.796000000
H    -3.119000000    -0.959000000     9.119000000
O    -1.540000000     4.722000000     1.855000000
H    -2.067000000     4.108000000     1.344000000
H    -1.034000000     5.205000000     1.201000000
O     4.281000000     0.150000000    -3.842000000
H     4.883000000     0.631000000    -4.410000000
H     4.017000000     0.788000000    -3.179000000
O     2.526000000     0.774000000     3.765000000
H     1.787000000     0.773000000     4.373000000
H     2.831000000    -0.133000000     3.756000000
O    -3.060000000     5.148000000     5.125000000
H    -2.420000000     4.440000000     5.054000000
H    -2.668000000     5.764000000     5.743000000
O     6.264000000    -1.682000000     1.411000000
H     5.659000000    -2.328000000     1.775000000
H     6.202000000    -1.802000000     0.463000000
O    -3.353000000    -1.155000000    -1.453000000
H    -3.670000000    -0.927000000    -2.327000000
H    -2.515000000    -0.698000000    -1.375000000
O     0.119000000     5.436000000    -5.733000000
H    -0.587000000     6.057000000    -5.914000000
H    -0.327000000     4.651000000    -5.416000000
O    -4.645000000    -1.589000000     5.945000000
H    -3.837000000    -2.047000000     6.175000000
H    -4.442000000    -1.143000000     5.122000000
O     2.330000000     4.757000000    -2.549000000
H     3.171000000     4.304000000    -2.483000000
H     1.993000000     4.768000000    -1.654000000
O     4.049000000     2.521000000    -2.163000000
H     3.420000000     2.741000000    -1.476000000
H     4.749000000     2.053000000    -1.707000000
O    -3.815000000     3.467000000     0.600000000
H    -3.706000000     2.569000000     0.911000000
H    -4.471000000     3.402000000    -0.095000000
O     2.438000000    -2.136000000     3.729000000
H     1.499000000    -2.188000000     3.905000000
H     2.849000000    -2.238000000     4.587000000
O    -6.050000000     1.639000000     5.193000000
H    -5.273000000     1.111000000     5.009000000
H    -5.846000000     2.501000000     4.830000000
O     0.674000000     0.720000000     5.834000000
H    -0.019000000     0.318000000     5.310000000
H     0.600000000     0.301000000     6.691000000
O    -4.114000000     3.923000000    -4.769000000
H    -4.181000000     3.098000000    -4.287000000
H    -3.174000000     4.096000000    -4.817000000
O     4.056000000    -2.469000000    -2.816000000
H     3.258000000    -2.944000000    -3.048000000
H     3.988000000    -1.640000000    -3.289000000
O     4.422000000    -3.740000000     2.614000000
H     4.223000000    -4.139000000     1.767000000
H     3.623000000    -3.268000000     2.849000000
O     1.941000000     2.902000000     6.819000000
H     1.529000000     2.070000000     6.586000000
H     2.585000000     3.051000000     6.126000000
O     1.348000000     3.238000000    -0.285000000
H     2.072000000     3.377000000     0.326000000
H     0.754000000     2.648000000     0.178000000
O    -1.867000000     2.423000000    -7.795000000
H    -2.627000000     2.035000000    -7.361000000
H    -1.155000000     2.328000000    -7.163000000
O     1.285000000    -5.169000000     3.567000000
H     1.065000000    -5.600000000     4.393000000
H     1.867000000    -4.452000000     3.818000000
O    -4.046000000     0.638000000     3.829000000
H    -4.136000000     0.463000000     2.892000000
H    -3.104000000     0.740000000     3.965000000
O    -3.218000000    -4.839000000     5.509000000
H    -3.812000000    -5.062000000     4.792000000
H    -2.448000000    -4.470000000     5.076000000
O    -4.563000000     0.350000000     1.062000000
H    -5.176000000    -0.301000000     1.403000000
H    -4.115000000    -0.095000000     0.343000000
O     0.567000000    -3.557000000     7.490000000
H     0.805000000    -4.204000000     6.826000000
H    -0.075000000    -4.004000000     8.041000000
O     0.935000000     2.149000000    -6.733000000
H     1.181000000     2.870000000    -7.311000000
H     1.471000000     2.276000000    -5.950000000
O     3.845000000    -5.073000000     0.290000000
H     3.025000000    -5.165000000    -0.195000000
H     4.505000000    -4.912000000    -0.384000000
O    -0.396000000     6.075000000    -2.431000000
H    -0.289000000     6.070000000    -1.480000000
H     0.474000000     5.867000000    -2.771000000
O     1.823000000    -3.950000000    -3.432000000
H     1.927000000    -4.449000000    -4.243000000
H     1.216000000    -3.247000000    -3.660000000
O     1.872000000    -5.529000000    -1.247000000
H     0.976000000    -5.865000000    -1.254000000
H     1.950000000    -5.037000000    -2.064000000
O    -3.452000000     0.704000000    -6.561000000
H    -3.459000000     0.317000000    -5.686000000
H    -3.777000000     0.009000000    -7.133000000
O    -5.570000000     3.038000000    -1.139000000
H    -6.197000000     2.412000000    -0.774000000
H    -5.434000000     2.743000000    -2.039000000
O     3.238000000     1.698000000     1.295000000
H     3.854000000     1.097000000     0.875000000
H     2.967000000     1.244000000     2.093000000
O     5.667000000     1.082000000    -0.593000000
H     6.525000000     1.506000000    -0.590000000
H     5.863000000     0.146000000    -0.539000000
O    -1.652000000    -1.602000000     5.841000000
H    -0.978000000    -2.236000000     6.086000000
H    -1.484000000    -1.419000000     4.917000000
O     6.163000000    -1.499000000    -1.160000000
H     5.600000000    -1.676000000    -1.914000000
H     7.023000000    -1.320000000    -1.540000000
O    -0.760000000    -0.271000000    -5.966000000
H    -1.452000000    -0.105000000    -6.606000000
H    -0.199000000     0.503000000    -6.015000000
O    -3.875000000    -2.862000000     2.664000000
H    -4.334000000    -3.567000000     3.122000000
H    -3.026000000    -2.805000000     3.103000000
O    -4.957000000     1.622000000    -3.504000000
H    -5.806000000     1.482000000    -3.923000000
H    -4.477000000     0.808000000    -3.656000000
O    -1.440000000    -3.751000000     3.533000000
H    -0.916000000    -3.008000000     3.833000000
H    -0.798000000    -4.372000000     3.188000000
O    -3.846000000    -0.775000000    -4.315000000
H    -4.458000000    -1.419000000    -4.671000000
H    -2.999000000    -1.220000000    -4.321000000
O    -1.247000000     3.283000000    -4.423000000
H    -1.195000000     3.412000000    -3.476000000
H    -0.661000000     2.547000000    -4.598000000
O     2.654000000     3.120000000    -4.805000000
H     3.482000000     2.641000000    -4.779000000
H     2.562000000     3.489000000    -3.927000000
O    -2.204000000     3.763000000    -1.842000000
H    -2.913000000     3.876000000    -1.208000000
H    -1.436000000     4.140000000    -1.412000000
