161
-3053.88494
C    -1.331000000     0.461000000     0.248000000
H    -2.366000000     0.784000000     0.327000000
C    -0.804000000     0.341000000    -1.010000000
H    -1.394000000     0.570000000    -1.894000000
C     0.521000000    -0.232000000    -1.107000000
C     1.008000000    -0.551000000    -2.506000000
H     1.147000000    -1.622000000    -2.664000000
H     0.312000000    -0.205000000    -3.274000000
H     1.955000000    -0.030000000    -2.662000000
C     1.203000000    -0.449000000     0.045000000
H     2.254000000    -0.703000000    -0.070000000
C     0.747000000    -0.114000000     1.329000000
H     1.288000000    -0.269000000     2.259000000
C    -0.553000000     0.171000000     1.449000000
C    -1.163000000     0.501000000     2.811000000
O    -0.955000000    -0.162000000     3.797000000
O    -1.870000000     1.508000000     2.918000000
O    -0.268000000     3.451000000    -3.755000000
H     0.684000000     3.380000000    -3.695000000
H    -0.586000000     3.154000000    -2.902000000
O    -0.441000000     3.756000000     3.754000000
H    -0.892000000     2.951000000     3.497000000
H    -0.842000000     4.438000000     3.215000000
O    -2.543000000     0.261000000     7.090000000
H    -1.600000000     0.238000000     7.249000000
H    -2.805000000    -0.660000000     7.064000000
O     2.203000000     2.478000000     1.850000000
H     2.771000000     2.894000000     1.201000000
H     1.393000000     2.292000000     1.374000000
O     5.313000000     1.877000000    -3.965000000
H     5.356000000     2.709000000    -3.493000000
H     5.729000000     1.246000000    -3.378000000
O    -3.211000000     2.451000000     5.467000000
H    -3.023000000     1.768000000     6.110000000
H    -2.688000000     2.209000000     4.702000000
O    -1.838000000    -1.189000000    -5.581000000
H    -1.403000000    -0.375000000    -5.836000000
H    -2.419000000    -0.935000000    -4.864000000
O    -1.215000000     1.370000000    -6.067000000
H    -0.736000000     1.664000000    -5.292000000
H    -1.977000000     1.949000000    -6.111000000
O    -3.121000000     5.138000000     5.541000000
H    -3.378000000     5.276000000     6.452000000
H    -3.197000000     4.193000000     5.411000000
O     1.074000000     0.199000000    -7.819000000
H     1.529000000     0.711000000    -7.150000000
H     0.662000000     0.854000000    -8.382000000
O     5.079000000    -1.995000000     4.858000000
H     4.380000000    -2.436000000     5.342000000
H     4.621000000    -1.461000000     4.209000000
O     2.575000000    -3.677000000     2.626000000
H     2.370000000    -4.409000000     3.208000000
H     1.722000000    -3.364000000     2.325000000
O    -1.857000000    -2.573000000    -1.908000000
H    -0.934000000    -2.827000000    -1.918000000
H    -2.092000000    -2.563000000    -0.980000000
O    -5.262000000    -0.932000000     4.733000000
H    -5.319000000    -0.555000000     5.611000000
H    -6.108000000    -0.734000000     4.331000000
O     5.477000000     0.877000000     0.745000000
H     5.584000000     0.801000000     1.694000000
H     5.706000000     0.010000000     0.409000000
O    -3.019000000    -2.563000000     6.912000000
H    -2.778000000    -2.663000000     5.991000000
H    -3.833000000    -3.059000000     7.002000000
O    -1.813000000     5.394000000     1.897000000
H    -2.433000000     4.713000000     1.636000000
H    -2.355000000     6.172000000     2.029000000
O     1.393000000     0.981000000     4.519000000
H     0.555000000     0.559000000     4.329000000
H     1.271000000     1.889000000     4.245000000
O    -2.304000000     3.412000000    -1.263000000
H    -2.902000000     4.156000000    -1.344000000
H    -2.240000000     3.259000000    -0.320000000
O    -0.125000000    -5.442000000    -0.251000000
H    -0.818000000    -5.849000000    -0.771000000
H    -0.159000000    -5.896000000     0.590000000
O     0.544000000    -2.494000000    -7.900000000
H     0.269000000    -2.799000000    -7.035000000
H     0.626000000    -1.545000000    -7.804000000
O     4.718000000     3.320000000    -0.083000000
H     5.378000000     3.897000000     0.302000000
H     5.092000000     2.442000000    -0.002000000
O     0.234000000    -2.455000000     4.153000000
H     0.825000000    -2.640000000     4.883000000
H    -0.227000000    -1.658000000     4.415000000
O     4.106000000    -3.401000000    -1.587000000
H     3.226000000    -3.741000000    -1.746000000
H     4.292000000    -2.851000000    -2.348000000
O    -4.191000000     1.394000000    -1.947000000
H    -3.558000000     2.100000000    -2.079000000
H    -4.201000000     1.255000000    -1.000000000
O     5.148000000    -1.779000000    -3.797000000
H     5.875000000    -2.355000000    -4.035000000
H     5.569000000    -0.973000000    -3.497000000
O     6.052000000     0.205000000    -2.127000000
H     6.345000000    -0.610000000    -1.719000000
H     5.523000000     0.633000000    -1.454000000
O     0.117000000     0.269000000     7.086000000
H     0.741000000     0.440000000     6.381000000
H     0.647000000    -0.104000000     7.790000000
O     5.405000000     0.369000000    -6.351000000
H     5.293000000     0.930000000    -5.583000000
H     6.353000000     0.307000000    -6.465000000
O     0.694000000     3.391000000     6.291000000
H     0.159000000     3.654000000     5.542000000
H     0.317000000     2.558000000     6.575000000
O     2.712000000     0.691000000    -5.425000000
H     2.453000000    -0.142000000    -5.031000000
H     3.582000000     0.524000000    -5.788000000
O    -4.206000000     0.465000000     2.635000000
H    -4.483000000     0.135000000     3.490000000
H    -3.321000000     0.799000000     2.782000000
O     4.433000000    -4.217000000     0.871000000
H     3.616000000    -4.016000000     1.326000000
H     4.271000000    -3.961000000    -0.037000000
O    -1.611000000    -3.112000000     2.199000000
H    -0.999000000    -2.944000000     2.916000000
H    -2.432000000    -2.713000000     2.487000000
O    -0.683000000    -3.575000000    -5.840000000
H    -1.164000000    -3.977000000    -5.117000000
H    -1.121000000    -2.736000000    -5.982000000
O    -3.492000000    -0.976000000    -3.468000000
H    -2.963000000    -1.500000000    -2.866000000
H    -3.652000000    -0.158000000    -2.998000000
O    -3.465000000     3.304000000     1.647000000
H    -4.390000000     3.142000000     1.831000000
H    -2.998000000     2.665000000     2.186000000
O     4.159000000     0.807000000     3.530000000
H     3.548000000     1.290000000     2.975000000
H     3.609000000     0.416000000     4.209000000
O    -2.961000000    -2.138000000     4.293000000
H    -2.480000000    -1.318000000     4.182000000
H    -3.876000000    -1.903000000     4.133000000
O     6.619000000    -1.653000000    -0.118000000
H     6.316000000    -2.453000000    -0.548000000
H     6.990000000    -1.952000000     0.712000000
O     2.462000000     3.075000000    -4.411000000
H     2.520000000     2.254000000    -4.900000000
H     3.071000000     2.963000000    -3.681000000
O    -6.158000000     2.923000000    -3.507000000
H    -5.598000000     2.245000000    -3.129000000
H    -6.028000000     3.684000000    -2.940000000
O    -5.253000000     0.768000000     0.308000000
H    -6.069000000     1.261000000     0.392000000
H    -4.945000000     0.658000000     1.208000000
O    -2.582000000    -5.020000000     4.447000000
H    -2.414000000    -4.084000000     4.340000000
H    -3.075000000    -5.083000000     5.265000000
O    -6.530000000    -1.168000000    -1.285000000
H    -6.178000000    -1.996000000    -0.959000000
H    -5.985000000    -0.497000000    -0.874000000
O     1.766000000    -4.698000000    -2.275000000
H     0.939000000    -4.932000000    -1.855000000
H     1.674000000    -5.008000000    -3.176000000
O     2.593000000    -1.937000000    -5.225000000
H     3.412000000    -1.904000000    -4.730000000
H     2.435000000    -2.870000000    -5.366000000
O     0.784000000     4.768000000     0.613000000
H    -0.122000000     4.915000000     0.886000000
H     1.306000000     4.999000000     1.382000000
