161
-3069.58508
C    -0.967000000     1.110000000     0.101000000
H    -1.683000000     1.916000000    -0.032000000
C    -0.310000000     0.675000000    -1.039000000
H    -0.365000000     1.241000000    -1.965000000
C     0.592000000    -0.365000000    -1.001000000
C     1.282000000    -0.828000000    -2.270000000
H     0.647000000    -0.856000000    -3.158000000
H     2.086000000    -0.138000000    -2.534000000
H     1.781000000    -1.795000000    -2.183000000
C     0.821000000    -0.987000000     0.232000000
H     1.530000000    -1.811000000     0.226000000
C     0.110000000    -0.664000000     1.405000000
H     0.366000000    -1.142000000     2.347000000
C    -0.845000000     0.407000000     1.311000000
C    -1.519000000     0.922000000     2.518000000
O    -1.159000000     0.531000000     3.629000000
O    -2.365000000     1.783000000     2.419000000
O     4.997000000    -4.062000000    -1.492000000
H     5.633000000    -3.469000000    -1.892000000
H     4.774000000    -3.647000000    -0.659000000
O     1.866000000     3.777000000    -1.814000000
H     2.022000000     2.906000000    -2.179000000
H     2.537000000     4.329000000    -2.217000000
O    -0.846000000    -1.817000000     4.796000000
H    -0.937000000    -1.096000000     4.173000000
H     0.087000000    -2.030000000     4.781000000
O    -1.647000000     0.674000000    -4.392000000
H    -0.803000000     0.995000000    -4.074000000
H    -2.215000000     0.691000000    -3.622000000
O    -1.164000000     1.338000000     6.272000000
H    -0.993000000     0.981000000     5.400000000
H    -1.833000000     2.008000000     6.129000000
O    -3.569000000     0.548000000    -2.190000000
H    -3.319000000     0.763000000    -1.292000000
H    -4.073000000    -0.262000000    -2.111000000
O    -5.500000000     3.923000000     3.983000000
H    -4.807000000     3.407000000     4.393000000
H    -5.458000000     4.773000000     4.423000000
O     3.298000000    -5.343000000    -5.068000000
H     2.740000000    -6.078000000    -5.322000000
H     3.141000000    -5.235000000    -4.130000000
O     0.473000000    -5.794000000    -3.911000000
H     1.156000000    -5.610000000    -3.266000000
H     0.005000000    -6.550000000    -3.555000000
O    -1.646000000     6.458000000     1.012000000
H    -1.418000000     5.642000000     1.456000000
H    -2.495000000     6.703000000     1.381000000
O     5.173000000    -2.857000000     1.400000000
H     5.325000000    -1.916000000     1.316000000
H     6.022000000    -3.255000000     1.207000000
O     4.058000000    -5.231000000     2.017000000
H     4.428000000    -4.449000000     1.608000000
H     3.143000000    -5.004000000     2.184000000
O    -0.413000000     2.613000000    -6.489000000
H    -1.210000000     2.676000000    -5.963000000
H    -0.476000000     1.760000000    -6.920000000
O     0.838000000     3.211000000     5.347000000
H     1.265000000     3.514000000     6.149000000
H     0.150000000     2.619000000     5.650000000
O     3.737000000     2.945000000    -4.546000000
H     3.455000000     3.737000000    -4.087000000
H     4.599000000     2.750000000    -4.179000000
O    -2.711000000     4.204000000    -4.694000000
H    -3.463000000     4.031000000    -4.128000000
H    -1.986000000     4.360000000    -4.088000000
O    -1.844000000    -4.549000000    -0.710000000
H    -2.046000000    -3.888000000    -1.373000000
H    -2.406000000    -4.324000000     0.032000000
O     3.415000000    -2.458000000    -4.831000000
H     3.506000000    -3.372000000    -5.102000000
H     2.646000000    -2.453000000    -4.261000000
O     1.540000000     0.487000000     4.066000000
H     1.243000000     0.425000000     4.973000000
H     0.752000000     0.708000000     3.570000000
O    -2.276000000    -1.560000000     7.149000000
H    -1.992000000    -0.940000000     7.820000000
H    -1.654000000    -1.437000000     6.431000000
O    -2.932000000    -4.125000000     4.639000000
H    -3.774000000    -3.674000000     4.699000000
H    -2.283000000    -3.421000000     4.618000000
O     1.171000000     1.883000000    -4.410000000
H     2.082000000     1.965000000    -4.691000000
H     0.663000000     2.249000000    -5.134000000
O    -3.633000000     2.656000000     5.698000000
H    -3.708000000     1.774000000     5.333000000
H    -4.179000000     2.637000000     6.484000000
O     6.442000000    -1.194000000    -1.526000000
H     5.841000000    -0.450000000    -1.540000000
H     7.174000000    -0.901000000    -0.984000000
O     2.605000000     1.522000000     0.306000000
H     2.238000000     2.220000000     0.849000000
H     1.997000000     0.791000000     0.413000000
O    -4.212000000    -0.117000000     5.730000000
H    -4.935000000    -0.376000000     6.302000000
H    -3.432000000    -0.476000000     6.153000000
O    -7.025000000     1.983000000     2.334000000
H    -6.426000000     2.689000000     2.579000000
H    -6.725000000     1.228000000     2.841000000
O     1.750000000    -3.052000000     5.129000000
H     1.706000000    -2.692000000     6.015000000
H     2.686000000    -3.113000000     4.941000000
O     2.899000000     3.465000000     3.731000000
H     2.149000000     3.157000000     4.240000000
H     2.511000000     3.887000000     2.964000000
O    -1.166000000     4.337000000     3.121000000
H    -0.328000000     4.161000000     3.549000000
H    -1.445000000     3.486000000     2.782000000
O    -4.207000000    -0.739000000     0.403000000
H    -3.738000000    -1.000000000     1.195000000
H    -5.035000000    -0.380000000     0.722000000
O     1.417000000     3.885000000     0.881000000
H     1.350000000     4.820000000     1.077000000
H     1.552000000     3.848000000    -0.066000000
O     4.577000000     0.672000000    -1.658000000
H     3.851000000     0.828000000    -1.054000000
H     5.050000000     1.504000000    -1.685000000
O    -3.932000000     3.863000000     1.484000000
H    -3.633000000     4.659000000     1.923000000
H    -3.289000000     3.198000000     1.728000000
O    -4.611000000     0.302000000     3.008000000
H    -4.114000000     1.097000000     2.817000000
H    -4.495000000     0.167000000     3.949000000
O     1.170000000     0.193000000     6.923000000
H     1.552000000     0.743000000     7.607000000
H     0.245000000     0.439000000     6.907000000
O     2.746000000    -2.456000000    -7.490000000
H     2.874000000    -2.025000000    -6.645000000
H     2.533000000    -1.744000000    -8.093000000
O    -2.053000000    -2.016000000    -4.213000000
H    -1.274000000    -2.554000000    -4.355000000
H    -1.719000000    -1.121000000    -4.157000000
O     1.281000000    -4.434000000     2.542000000
H     1.459000000    -3.987000000     3.370000000
H     0.590000000    -5.061000000     2.752000000
O    -4.670000000     3.066000000    -2.839000000
H    -4.180000000     2.247000000    -2.915000000
H    -5.079000000     3.020000000    -1.975000000
O    -0.064000000    -3.899000000    -5.639000000
H     0.087000000    -4.633000000    -5.043000000
H     0.385000000    -4.150000000    -6.446000000
O     5.147000000    -0.392000000    -4.564000000
H     4.529000000    -1.116000000    -4.656000000
H     4.932000000     0.002000000    -3.719000000
O    -5.802000000     3.085000000    -0.522000000
H    -5.263000000     3.329000000     0.231000000
H    -6.662000000     2.890000000    -0.147000000
O     5.289000000     0.069000000     1.465000000
H     5.451000000     0.628000000     2.225000000
H     4.584000000     0.510000000     0.990000000
O     3.848000000    -0.447000000     4.935000000
H     3.054000000    -0.094000000     4.534000000
H     3.878000000    -1.358000000     4.645000000
O     1.084000000    -4.707000000    -0.350000000
H     0.152000000    -4.659000000    -0.562000000
H     1.115000000    -4.650000000     0.605000000
O     2.737000000    -5.171000000    -2.329000000
H     2.087000000    -5.051000000    -1.637000000
H     3.556000000    -4.860000000    -1.945000000
O    -0.699000000     5.044000000    -3.155000000
H    -0.852000000     5.989000000    -3.122000000
H     0.224000000     4.943000000    -2.923000000
