161
-3050.26847
C    -0.586000000     0.130000000    -1.322000000
H    -0.914000000     0.132000000    -2.359000000
C     0.565000000    -0.563000000    -1.016000000
H     1.197000000    -0.954000000    -1.810000000
C     1.022000000    -0.696000000     0.334000000
C     2.376000000    -1.206000000     0.525000000
H     2.173000000    -2.077000000     1.151000000
H     2.900000000    -1.447000000    -0.403000000
H     2.966000000    -0.601000000     1.217000000
C     0.208000000    -0.159000000     1.307000000
H     0.527000000    -0.277000000     2.340000000
C    -0.889000000     0.631000000     0.999000000
H    -1.466000000     1.065000000     1.812000000
C    -1.347000000     0.743000000    -0.321000000
C    -2.585000000     1.534000000    -0.734000000
O    -3.438000000     1.752000000     0.121000000
O    -2.702000000     1.988000000    -1.834000000
O     2.452000000    -4.273000000     3.706000000
H     2.262000000    -4.367000000     4.640000000
H     2.000000000    -3.469000000     3.449000000
O     5.633000000    -1.305000000    -0.863000000
H     5.784000000    -2.249000000    -0.903000000
H     5.104000000    -1.180000000    -0.075000000
O     1.464000000     1.830000000    -4.363000000
H     2.414000000     1.943000000    -4.406000000
H     1.275000000     1.150000000    -5.010000000
O    -3.637000000     4.793000000    -4.704000000
H    -3.301000000     4.669000000    -3.816000000
H    -2.892000000     5.139000000    -5.196000000
O     1.290000000     2.184000000     6.373000000
H     1.379000000     1.231000000     6.374000000
H     1.003000000     2.397000000     5.485000000
O    -0.515000000    -2.249000000    -5.030000000
H     0.315000000    -2.644000000    -5.298000000
H    -0.965000000    -2.941000000    -4.546000000
O     1.101000000     3.082000000    -0.793000000
H     1.753000000     3.029000000    -0.094000000
H     1.009000000     2.181000000    -1.103000000
O     5.131000000     1.846000000    -0.399000000
H     4.939000000     1.486000000    -1.265000000
H     5.297000000     1.078000000     0.148000000
O     6.236000000    -2.400000000     2.873000000
H     6.454000000    -2.509000000     1.948000000
H     5.741000000    -1.581000000     2.907000000
O    -4.322000000    -0.144000000    -6.336000000
H    -3.968000000    -1.011000000    -6.139000000
H    -4.379000000     0.291000000    -5.485000000
O    -5.194000000     3.464000000    -1.588000000
H    -4.931000000     4.377000000    -1.478000000
H    -4.379000000     2.968000000    -1.507000000
O     0.256000000     4.189000000    -3.410000000
H     0.662000000     3.461000000    -3.880000000
H     0.600000000     4.122000000    -2.520000000
O    -2.736000000     2.972000000     5.080000000
H    -3.648000000     2.994000000     5.368000000
H    -2.749000000     3.374000000     4.211000000
O     0.144000000    -5.581000000     3.118000000
H     0.248000000    -6.527000000     3.015000000
H     0.989000000    -5.283000000     3.454000000
O    -4.359000000    -2.219000000    -2.531000000
H    -3.510000000    -2.645000000    -2.416000000
H    -4.428000000    -1.619000000    -1.788000000
O     3.915000000    -0.213000000     4.828000000
H     4.411000000    -0.169000000     5.646000000
H     3.056000000    -0.547000000     5.088000000
O     0.202000000    -2.768000000     4.698000000
H     0.422000000    -2.209000000     5.443000000
H    -0.724000000    -2.976000000     4.821000000
O    -4.025000000     1.438000000    -4.099000000
H    -4.958000000     1.476000000    -3.888000000
H    -3.586000000     1.665000000    -3.279000000
O    -4.614000000    -0.892000000    -0.102000000
H    -4.033000000    -0.148000000     0.055000000
H    -5.328000000    -0.775000000     0.524000000
O    -4.093000000     6.002000000    -1.865000000
H    -3.285000000     5.491000000    -1.901000000
H    -3.837000000     6.876000000    -2.161000000
O    -1.657000000     0.206000000     6.931000000
H    -1.915000000     1.037000000     7.329000000
H    -1.960000000     0.271000000     6.025000000
O     1.296000000    -0.667000000     6.454000000
H     1.760000000    -1.226000000     7.077000000
H     0.568000000    -0.300000000     6.957000000
O     2.331000000    -3.410000000    -2.472000000
H     2.855000000    -4.089000000    -2.899000000
H     2.584000000    -2.600000000    -2.914000000
O    -2.560000000     0.106000000     4.350000000
H    -2.511000000     1.043000000     4.162000000
H    -3.486000000    -0.056000000     4.528000000
O     1.119000000    -4.425000000    -0.460000000
H     1.951000000    -4.787000000    -0.154000000
H     1.350000000    -3.923000000    -1.242000000
O    -2.078000000     4.483000000    -2.315000000
H    -1.166000000     4.458000000    -2.603000000
H    -2.315000000     3.564000000    -2.189000000
O     5.584000000     0.320000000     2.021000000
H     4.882000000     0.658000000     2.577000000
H     6.344000000     0.858000000     2.242000000
O    -1.677000000    -3.452000000    -1.946000000
H    -2.088000000    -3.760000000    -1.139000000
H    -0.952000000    -2.902000000    -1.651000000
O     4.214000000     1.546000000    -3.211000000
H     4.027000000     0.613000000    -3.316000000
H     4.804000000     1.755000000    -3.935000000
O    -3.124000000     3.247000000     2.372000000
H    -3.561000000     2.901000000     1.594000000
H    -2.261000000     3.520000000     2.060000000
O     2.222000000    -2.456000000    -5.505000000
H     2.509000000    -2.325000000    -6.409000000
H     2.671000000    -1.771000000    -5.009000000
O     0.743000000     0.034000000    -6.269000000
H     0.304000000    -0.676000000    -5.799000000
H     0.520000000    -0.113000000    -7.188000000
O    -0.632000000     3.909000000     1.484000000
H    -0.049000000     3.682000000     0.759000000
H    -0.381000000     4.802000000     1.722000000
O     4.439000000     3.727000000     3.354000000
H     4.014000000     2.884000000     3.511000000
H     4.932000000     3.900000000     4.156000000
O    -5.764000000     4.512000000     3.628000000
H    -5.060000000     3.886000000     3.456000000
H    -5.638000000     5.199000000     2.974000000
O     3.091000000     1.482000000     2.985000000
H     3.392000000     0.797000000     3.582000000
H     2.136000000     1.414000000     3.005000000
O    -2.428000000     2.081000000    -6.214000000
H    -2.255000000     2.695000000    -5.501000000
H    -2.773000000     1.301000000    -5.779000000
O     3.455000000     3.652000000     0.715000000
H     4.119000000     3.074000000     0.339000000
H     3.700000000     3.729000000     1.637000000
O    -0.218000000     2.564000000     4.130000000
H    -0.369000000     2.644000000     3.188000000
H    -1.064000000     2.771000000     4.527000000
O     4.108000000    -1.080000000    -3.150000000
H     4.804000000    -1.301000000    -3.769000000
H     4.556000000    -0.989000000    -2.309000000
O    -3.764000000    -3.286000000     0.747000000
H    -4.113000000    -2.448000000     0.443000000
H    -3.552000000    -3.137000000     1.669000000
O     5.040000000    -4.985000000     3.224000000
H     4.316000000    -4.747000000     3.803000000
H     5.500000000    -4.160000000     3.065000000
O    -6.493000000     1.025000000    -2.955000000
H    -6.828000000     0.369000000    -2.343000000
H    -6.383000000     1.814000000    -2.424000000
O    -0.800000000    -3.746000000     1.267000000
H    -0.035000000    -3.780000000     0.692000000
H    -0.694000000    -4.497000000     1.851000000
O    -7.642000000     1.296000000     2.699000000
H    -7.171000000     1.540000000     1.903000000
H    -7.122000000     1.672000000     3.410000000
O    -5.898000000     2.416000000     0.943000000
H    -6.071000000     3.077000000     0.273000000
H    -5.056000000     2.035000000     0.693000000
O     2.969000000    -6.634000000     1.886000000
H     3.411000000    -6.757000000     1.046000000
H     3.384000000    -5.859000000     2.263000000
O    -2.439000000    -2.343000000     3.023000000
H    -1.895000000    -2.664000000     2.304000000
H    -2.017000000    -1.528000000     3.297000000
