161
-3030.00541
C    -0.635000000    -0.731000000    -1.181000000
H    -1.096000000    -1.112000000    -2.089000000
C     0.174000000     0.455000000    -1.227000000
H     0.331000000     0.970000000    -2.171000000
C     0.631000000     1.079000000    -0.097000000
C     1.506000000     2.302000000    -0.211000000
H     2.119000000     2.468000000     0.678000000
H     2.114000000     2.120000000    -1.099000000
H     0.825000000     3.137000000    -0.391000000
C     0.284000000     0.576000000     1.163000000
H     0.611000000     1.080000000     2.069000000
C    -0.323000000    -0.698000000     1.204000000
H    -0.474000000    -1.159000000     2.176000000
C    -0.851000000    -1.340000000     0.066000000
C    -1.506000000    -2.693000000     0.308000000
O    -1.782000000    -3.089000000     1.424000000
O    -1.931000000    -3.373000000    -0.624000000
O     4.181000000     6.686000000     2.866000000
H     4.074000000     5.736000000     2.825000000
H     5.047000000     6.812000000     3.254000000
O    -3.253000000     1.161000000     0.567000000
H    -2.790000000     0.634000000     1.219000000
H    -4.173000000     1.108000000     0.825000000
O    -3.559000000     0.145000000    -2.219000000
H    -3.746000000     0.995000000    -2.618000000
H    -2.777000000     0.298000000    -1.688000000
O     3.646000000     3.994000000     2.780000000
H     3.558000000     3.078000000     3.042000000
H     2.746000000     4.296000000     2.660000000
O     2.105000000    -7.029000000    -2.038000000
H     2.172000000    -6.928000000    -2.988000000
H     1.516000000    -6.327000000    -1.764000000
O     0.139000000    -0.548000000     4.677000000
H     0.897000000     0.029000000     4.587000000
H    -0.610000000     0.047000000     4.725000000
O     2.491000000    -2.341000000    -0.749000000
H     1.978000000    -2.982000000    -1.242000000
H     2.354000000    -1.516000000    -1.215000000
O     4.754000000    -1.889000000     1.114000000
H     4.109000000    -1.915000000     0.407000000
H     5.088000000    -2.784000000     1.167000000
O    -2.687000000     0.973000000     4.672000000
H    -2.600000000     0.201000000     4.113000000
H    -3.224000000     0.676000000     5.408000000
O     0.833000000    -2.702000000    -3.579000000
H    -0.078000000    -2.981000000    -3.672000000
H     0.958000000    -2.057000000    -4.275000000
O    -2.896000000    -4.661000000     4.655000000
H    -2.941000000    -4.878000000     3.724000000
H    -3.652000000    -4.094000000     4.805000000
O     3.740000000     1.026000000     3.602000000
H     3.698000000     0.875000000     2.658000000
H     4.268000000     0.301000000     3.937000000
O     2.499000000     6.344000000    -1.378000000
H     2.263000000     6.870000000    -0.614000000
H     3.000000000     5.612000000    -1.020000000
O    -1.597000000    -6.741000000     5.347000000
H    -2.042000000    -5.923000000     5.127000000
H    -1.555000000    -6.742000000     6.303000000
O     2.676000000    -3.818000000     2.175000000
H     2.995000000    -4.588000000     1.704000000
H     2.710000000    -3.111000000     1.531000000
O    -0.152000000     2.948000000     5.501000000
H     0.651000000     2.457000000     5.674000000
H    -0.844000000     2.432000000     5.915000000
O    -6.268000000    -6.378000000     0.884000000
H    -5.883000000    -5.784000000     0.240000000
H    -6.782000000    -5.809000000     1.457000000
O    -0.150000000     3.148000000    -4.539000000
H    -0.624000000     2.322000000    -4.635000000
H    -0.488000000     3.525000000    -3.727000000
O    -1.659000000    -4.032000000    -3.087000000
H    -1.612000000    -4.981000000    -2.974000000
H    -1.873000000    -3.697000000    -2.216000000
O     6.492000000     2.859000000    -0.991000000
H     6.975000000     3.169000000    -1.757000000
H     6.268000000     1.952000000    -1.200000000
O     2.521000000    -3.914000000     5.128000000
H     2.710000000    -3.693000000     4.216000000
H     1.573000000    -3.807000000     5.209000000
O     0.343000000     6.063000000    -3.683000000
H     0.848000000     5.722000000    -4.421000000
H     0.992000000     6.215000000    -2.997000000
O     0.722000000    -4.513000000    -1.159000000
H    -0.046000000    -4.664000000    -0.607000000
H     0.388000000    -4.002000000    -1.897000000
O    -6.921000000    -2.220000000    -1.588000000
H    -7.309000000    -2.225000000    -0.713000000
H    -6.027000000    -2.534000000    -1.456000000
O    -3.847000000     2.932000000     3.062000000
H    -4.371000000     2.299000000     2.571000000
H    -3.348000000     2.401000000     3.681000000
O     1.218000000     4.839000000     1.787000000
H     0.884000000     5.574000000     1.273000000
H     0.452000000     4.502000000     2.251000000
O     6.992000000     2.138000000     1.905000000
H     7.332000000     2.050000000     1.015000000
H     6.417000000     1.381000000     2.018000000
O    -4.967000000    -4.975000000    -1.014000000
H    -4.533000000    -4.131000000    -1.141000000
H    -4.253000000    -5.584000000    -0.824000000
O     2.481000000     2.012000000     6.241000000
H     3.066000000     1.812000000     5.511000000
H     3.016000000     2.534000000     6.840000000
O    -5.159000000    -2.985000000     2.139000000
H    -5.302000000    -3.907000000     1.924000000
H    -4.918000000    -2.580000000     1.306000000
O    -1.155000000    -6.571000000    -2.326000000
H    -0.249000000    -6.691000000    -2.611000000
H    -1.679000000    -6.760000000    -3.104000000
O     3.748000000     2.658000000    -2.724000000
H     4.224000000     3.466000000    -2.913000000
H     3.352000000     2.412000000    -3.559000000
O    -3.155000000    -6.928000000    -0.323000000
H    -2.512000000    -6.996000000    -1.029000000
H    -2.802000000    -7.480000000     0.375000000
O     4.764000000    -0.194000000    -3.178000000
H     5.076000000    -0.026000000    -2.288000000
H     4.044000000     0.426000000    -3.300000000
O    -0.123000000    -5.075000000     1.871000000
H     0.553000000    -4.616000000     2.369000000
H    -0.814000000    -4.423000000     1.749000000
O    -3.495000000    -5.400000000     1.912000000
H    -3.262000000    -5.946000000     1.161000000
H    -3.121000000    -4.542000000     1.710000000
O     0.602000000    -0.602000000    -5.654000000
H    -0.045000000     0.002000000    -6.018000000
H     0.999000000    -1.018000000    -6.419000000
O    -2.222000000     1.026000000    -5.010000000
H    -2.878000000     1.312000000    -5.646000000
H    -2.665000000     0.349000000    -4.498000000
O     4.848000000     4.910000000     0.000000000
H     5.260000000     4.221000000    -0.520000000
H     4.926000000     4.606000000     0.905000000
O    -2.440000000     6.590000000     0.383000000
H    -2.934000000     7.374000000     0.141000000
H    -1.686000000     6.923000000     0.869000000
O    -3.661000000     3.476000000    -0.805000000
H    -3.456000000     2.803000000    -0.156000000
H    -3.111000000     4.221000000    -0.559000000
O     2.627000000     1.056000000    -4.811000000
H     1.995000000     0.338000000    -4.856000000
H     2.651000000     1.409000000    -5.700000000
O    -0.234000000    -3.205000000     5.281000000
H    -1.128000000    -3.445000000     5.038000000
H    -0.146000000    -2.294000000     5.002000000
O    -4.367000000    -3.788000000    -4.432000000
H    -3.649000000    -3.545000000    -3.847000000
H    -4.261000000    -4.731000000    -4.562000000
O    -4.277000000    -2.344000000    -0.927000000
H    -3.399000000    -2.718000000    -0.850000000
H    -4.163000000    -1.577000000    -1.488000000
O    -5.416000000    -2.947000000     4.758000000
H    -5.608000000    -2.744000000     3.842000000
H    -6.239000000    -2.781000000     5.217000000
O    -3.101000000    -1.029000000     2.544000000
H    -4.034000000    -1.187000000     2.397000000
H    -2.687000000    -1.877000000     2.384000000
O    -1.228000000     3.958000000     3.340000000
H    -1.532000000     3.183000000     2.867000000
H    -0.800000000     3.609000000     4.121000000
