161
-3043.76450
C    -0.933000000    -1.114000000     0.176000000
H    -1.682000000    -1.849000000     0.460000000
C    -1.063000000     0.208000000     0.704000000
H    -1.837000000     0.489000000     1.414000000
C    -0.135000000     1.173000000     0.404000000
C    -0.158000000     2.499000000     1.087000000
H     0.806000000     3.008000000     1.137000000
H    -0.974000000     3.067000000     0.635000000
H    -0.401000000     2.348000000     2.141000000
C     0.905000000     0.842000000    -0.471000000
H     1.658000000     1.598000000    -0.676000000
C     1.099000000    -0.414000000    -0.948000000
H     1.936000000    -0.648000000    -1.601000000
C     0.115000000    -1.441000000    -0.617000000
C     0.154000000    -2.836000000    -1.194000000
O     1.147000000    -3.260000000    -1.798000000
O    -0.634000000    -3.671000000    -0.858000000
O    -1.957000000    -1.106000000    -2.763000000
H    -1.636000000    -0.746000000    -1.936000000
H    -2.823000000    -0.713000000    -2.874000000
O    -0.685000000     3.765000000    -5.043000000
H     0.001000000     3.841000000    -5.705000000
H    -0.232000000     3.447000000    -4.263000000
O    -0.938000000    -5.095000000    -3.356000000
H    -0.627000000    -4.202000000    -3.206000000
H    -0.146000000    -5.631000000    -3.332000000
O    -0.814000000     5.544000000     0.116000000
H    -0.064000000     5.804000000     0.652000000
H    -0.451000000     5.422000000    -0.761000000
O    -3.273000000     4.827000000     0.747000000
H    -2.432000000     5.235000000     0.542000000
H    -3.349000000     4.901000000     1.699000000
O     5.096000000     1.329000000    -3.948000000
H     5.124000000     0.372000000    -3.980000000
H     4.622000000     1.527000000    -3.141000000
O    -4.045000000     5.227000000    -2.072000000
H    -3.453000000     5.756000000    -2.606000000
H    -3.647000000     5.226000000    -1.202000000
O     1.780000000    -0.180000000    -4.798000000
H     2.075000000     0.022000000    -5.686000000
H     1.881000000    -1.129000000    -4.722000000
O    -6.174000000     0.757000000    -0.447000000
H    -5.444000000     1.247000000    -0.069000000
H    -6.411000000     0.122000000     0.229000000
O     4.461000000     3.645000000     1.578000000
H     5.365000000     3.331000000     1.601000000
H     3.981000000     3.035000000     2.139000000
O    -3.299000000    -4.962000000     2.275000000
H    -3.521000000    -5.781000000     1.831000000
H    -2.566000000    -5.190000000     2.846000000
O    -0.646000000    -4.864000000     4.220000000
H     0.209000000    -4.445000000     4.313000000
H    -0.638000000    -5.231000000     3.336000000
O    -1.419000000    -7.322000000    -0.202000000
H    -1.718000000    -8.230000000    -0.257000000
H    -1.309000000    -7.051000000    -1.114000000
O     5.277000000    -6.062000000    -2.276000000
H     5.125000000    -6.829000000    -2.827000000
H     4.400000000    -5.755000000    -2.045000000
O     2.096000000     0.136000000     5.075000000
H     1.842000000     1.003000000     5.390000000
H     2.635000000    -0.226000000     5.779000000
O     1.741000000    -3.257000000    -4.523000000
H     1.387000000    -3.118000000    -3.644000000
H     2.437000000    -3.902000000    -4.401000000
O    -5.280000000    -2.899000000    -1.530000000
H    -4.922000000    -2.098000000    -1.911000000
H    -4.550000000    -3.278000000    -1.040000000
O     1.129000000    -7.564000000     2.217000000
H     0.939000000    -6.678000000     1.908000000
H     2.051000000    -7.538000000     2.471000000
O    -4.527000000    -0.254000000    -2.597000000
H    -4.870000000    -0.080000000    -3.473000000
H    -5.195000000     0.093000000    -2.005000000
O     1.032000000     2.584000000     5.605000000
H     1.219000000     3.473000000     5.908000000
H     0.213000000     2.351000000     6.042000000
O    -0.985000000    -2.073000000    -5.181000000
H    -0.164000000    -2.458000000    -4.875000000
H    -1.407000000    -1.745000000    -4.386000000
O    -5.026000000    -6.604000000    -1.832000000
H    -5.716000000    -6.095000000    -2.257000000
H    -4.222000000    -6.334000000    -2.277000000
O    -3.546000000    -4.678000000    -3.175000000
H    -3.458000000    -4.488000000    -2.241000000
H    -2.671000000    -4.958000000    -3.445000000
O     4.724000000     4.717000000    -1.272000000
H     5.026000000     5.615000000    -1.410000000
H     4.682000000     4.622000000    -0.321000000
O     2.210000000    -0.846000000     2.336000000
H     2.012000000    -0.335000000     3.121000000
H     1.478000000    -0.671000000     1.745000000
O     4.522000000     0.056000000     0.783000000
H     3.900000000     0.451000000     1.393000000
H     4.265000000    -0.866000000     0.742000000
O    -1.500000000     5.767000000    -3.222000000
H    -1.029000000     5.072000000    -3.682000000
H    -0.847000000     6.152000000    -2.637000000
O     6.075000000    -1.580000000    -3.358000000
H     6.252000000    -2.162000000    -4.097000000
H     5.303000000    -1.956000000    -2.936000000
O     4.601000000     1.809000000    -1.311000000
H     4.314000000     1.204000000    -0.627000000
H     5.086000000     2.488000000    -0.843000000
O    -3.401000000     0.759000000     4.508000000
H    -3.478000000    -0.069000000     4.035000000
H    -4.211000000     1.227000000     4.305000000
O     3.223000000     1.885000000     3.040000000
H     2.334000000     1.877000000     3.394000000
H     3.776000000     1.626000000     3.776000000
O    -2.308000000     1.594000000    -1.837000000
H    -1.494000000     1.722000000    -2.325000000
H    -2.975000000     1.474000000    -2.513000000
O     0.673000000     2.067000000    -3.254000000
H     0.993000000     1.878000000    -2.372000000
H     0.955000000     1.317000000    -3.777000000
O     2.111000000    -4.245000000     2.022000000
H     1.278000000    -4.600000000     1.713000000
H     1.876000000    -3.708000000     2.779000000
O    -3.501000000    -2.285000000     3.970000000
H    -2.918000000    -2.845000000     3.458000000
H    -4.260000000    -2.837000000     4.157000000
O     2.771000000     5.914000000     3.679000000
H     2.984000000     5.365000000     2.924000000
H     1.894000000     6.249000000     3.492000000
O     2.703000000    -5.415000000    -1.401000000
H     2.192000000    -5.941000000    -0.785000000
H     2.098000000    -4.732000000    -1.691000000
O    -6.170000000    -0.636000000     1.961000000
H    -6.017000000    -0.262000000     2.829000000
H    -5.871000000    -1.543000000     2.035000000
O     3.803000000    -2.556000000     0.608000000
H     3.243000000    -3.116000000     1.146000000
H     4.691000000    -2.742000000     0.913000000
O     2.590000000    -7.938000000    -3.016000000
H     2.734000000    -7.217000000    -3.629000000
H     1.719000000    -7.774000000    -2.654000000
O     1.545000000     7.279000000     1.318000000
H     2.492000000     7.390000000     1.230000000
H     1.230000000     8.131000000     1.618000000
O    -5.711000000    -3.724000000     1.773000000
H    -4.829000000    -4.016000000     2.003000000
H    -5.651000000    -3.481000000     0.850000000
O     3.877000000    -2.929000000    -2.169000000
H     2.928000000    -2.863000000    -2.063000000
H     4.216000000    -2.969000000    -1.275000000
O    -1.854000000     2.305000000     6.419000000
H    -1.978000000     3.224000000     6.180000000
H    -2.210000000     1.815000000     5.678000000
O    -5.435000000     1.978000000     2.940000000
H    -6.215000000     2.328000000     2.508000000
H    -4.737000000     2.079000000     2.294000000
O    -3.119000000    -4.046000000    -0.644000000
H    -3.275000000    -4.570000000     0.143000000
H    -2.193000000    -3.810000000    -0.594000000
O    -3.900000000     1.876000000     0.393000000
H    -3.497000000     1.385000000    -0.323000000
H    -3.699000000     2.792000000     0.198000000
O    -0.133000000    -5.230000000     1.228000000
H    -0.275000000    -4.647000000     0.482000000
H    -0.466000000    -6.078000000     0.936000000
