161
-3035.00268
C    -0.561000000    -1.010000000    -0.960000000
H    -1.003000000    -1.590000000    -1.766000000
C     0.068000000     0.153000000    -1.341000000
H     0.266000000     0.296000000    -2.401000000
C     0.614000000     0.956000000    -0.357000000
C     1.415000000     2.240000000    -0.706000000
H     2.152000000     2.498000000     0.057000000
H     1.855000000     2.117000000    -1.698000000
H     0.708000000     3.069000000    -0.646000000
C     0.374000000     0.745000000     0.968000000
H     0.687000000     1.377000000     1.795000000
C    -0.317000000    -0.366000000     1.410000000
H    -0.600000000    -0.486000000     2.453000000
C    -0.711000000    -1.295000000     0.398000000
C    -1.454000000    -2.546000000     0.813000000
O    -1.773000000    -2.714000000     1.981000000
O    -1.715000000    -3.449000000    -0.008000000
O    -3.899000000    -5.818000000    -3.784000000
H    -4.063000000    -6.396000000    -3.040000000
H    -3.781000000    -4.952000000    -3.393000000
O    -1.185000000     3.220000000    -2.492000000
H    -1.946000000     2.640000000    -2.505000000
H    -0.458000000     2.668000000    -2.780000000
O     2.943000000     5.029000000    -1.192000000
H     2.780000000     5.340000000    -2.082000000
H     2.097000000     5.106000000    -0.752000000
O    -4.636000000    -1.342000000    -0.329000000
H    -4.349000000    -1.528000000    -1.223000000
H    -3.957000000    -0.768000000     0.026000000
O    -2.774000000    -7.414000000     0.817000000
H    -3.684000000    -7.123000000     0.882000000
H    -2.587000000    -7.808000000     1.669000000
O    -1.562000000     5.329000000    -4.004000000
H    -1.368000000     4.539000000    -3.499000000
H    -2.474000000     5.530000000    -3.793000000
O     3.198000000     7.287000000     0.309000000
H     3.930000000     7.323000000     0.924000000
H     3.267000000     6.423000000    -0.097000000
O    -2.096000000    -1.815000000     4.282000000
H    -3.010000000    -1.531000000     4.312000000
H    -1.977000000    -2.147000000     3.392000000
O    -4.280000000     3.949000000    -0.428000000
H    -3.439000000     3.827000000     0.012000000
H    -4.915000000     3.521000000     0.147000000
O     2.579000000    -4.383000000    -0.012000000
H     1.718000000    -4.665000000    -0.321000000
H     2.794000000    -3.628000000    -0.560000000
O     1.442000000    -3.167000000     3.868000000
H     1.540000000    -2.258000000     3.586000000
H     1.660000000    -3.683000000     3.092000000
O     0.302000000    -1.108000000    -6.546000000
H    -0.627000000    -1.044000000    -6.767000000
H     0.670000000    -0.265000000    -6.812000000
O     1.597000000    -2.102000000    -4.409000000
H     1.125000000    -1.780000000    -5.177000000
H     1.366000000    -3.029000000    -4.356000000
O    -2.629000000    -2.813000000    -5.017000000
H    -2.272000000    -2.094000000    -5.538000000
H    -2.132000000    -3.582000000    -5.298000000
O    -1.359000000    -7.479000000    -1.843000000
H    -1.797000000    -7.893000000    -2.586000000
H    -1.952000000    -7.620000000    -1.105000000
O     2.180000000     1.286000000     5.717000000
H     3.023000000     1.732000000     5.640000000
H     2.215000000     0.855000000     6.571000000
O     0.418000000     2.247000000    -4.607000000
H     0.759000000     1.723000000    -5.332000000
H    -0.407000000     2.604000000    -4.936000000
O     0.073000000    -7.075000000     2.726000000
H     0.473000000    -7.071000000     3.595000000
H    -0.720000000    -6.549000000     2.824000000
O    -6.562000000    -3.663000000     1.509000000
H    -5.811000000    -4.054000000     1.955000000
H    -6.209000000    -3.343000000     0.679000000
O     0.045000000     2.765000000     4.961000000
H    -0.333000000     1.893000000     5.069000000
H     0.956000000     2.668000000     5.241000000
O     0.249000000    -2.318000000     6.347000000
H     1.009000000    -2.565000000     5.820000000
H    -0.332000000    -1.869000000     5.734000000
O    -0.004000000    -4.997000000    -1.214000000
H    -0.613000000    -5.731000000    -1.295000000
H    -0.507000000    -4.315000000    -0.769000000
O     4.324000000     3.377000000     4.178000000
H     4.107000000     2.786000000     3.457000000
H     4.410000000     2.804000000     4.940000000
O     2.292000000    -0.354000000     3.296000000
H     2.340000000     0.281000000     2.582000000
H     1.833000000     0.108000000     3.997000000
O     1.779000000     5.132000000    -4.917000000
H     1.139000000     5.685000000    -5.365000000
H     1.258000000     4.422000000    -4.539000000
O    -1.845000000    -5.351000000     2.482000000
H    -1.750000000    -4.468000000     2.125000000
H    -2.247000000    -5.854000000     1.773000000
O     1.285000000     7.748000000    -1.945000000
H     2.187000000     7.568000000    -1.683000000
H     0.764000000     7.097000000    -1.476000000
O    -1.014000000     4.997000000     3.529000000
H    -0.503000000     5.797000000     3.653000000
H    -0.537000000     4.329000000     4.020000000
O    -4.699000000    -1.584000000     4.889000000
H    -4.992000000    -0.674000000     4.845000000
H    -5.153000000    -1.945000000     5.651000000
O    -2.238000000     5.594000000     1.092000000
H    -1.626000000     5.384000000     1.797000000
H    -2.303000000     6.549000000     1.106000000
O    -4.438000000    -1.555000000    -3.014000000
H    -5.157000000    -2.138000000    -3.258000000
H    -3.710000000    -1.827000000    -3.573000000
O    -2.941000000     1.060000000     0.375000000
H    -2.948000000     1.226000000     1.318000000
H    -2.065000000     1.323000000     0.093000000
O     4.566000000     1.273000000    -2.007000000
H     4.779000000     2.180000000    -2.228000000
H     4.146000000     0.928000000    -2.795000000
O    -6.312000000    -5.892000000    -0.656000000
H    -5.719000000    -5.280000000    -1.092000000
H    -7.141000000    -5.799000000    -1.127000000
O    -0.119000000     5.650000000    -0.892000000
H    -0.890000000     5.551000000    -0.334000000
H    -0.370000000     5.246000000    -1.722000000
O    -1.264000000    -4.775000000     4.951000000
H    -1.311000000    -3.830000000     4.804000000
H    -1.467000000    -5.161000000     4.099000000
O    -4.450000000    -3.774000000     3.413000000
H    -3.514000000    -3.964000000     3.472000000
H    -4.563000000    -2.967000000     3.915000000
O    -2.353000000     2.381000000    -5.477000000
H    -2.637000000     2.140000000    -4.595000000
H    -3.086000000     2.880000000    -5.837000000
O    -3.149000000     1.106000000    -3.004000000
H    -3.062000000     1.016000000    -2.055000000
H    -3.805000000     0.453000000    -3.247000000
O     6.166000000     4.684000000    -1.180000000
H     6.382000000     4.862000000    -2.095000000
H     5.210000000     4.725000000    -1.147000000
O     0.481000000    -4.293000000    -3.854000000
H    -0.167000000    -4.777000000    -4.366000000
H     0.295000000    -4.531000000    -2.946000000
O     4.552000000    -0.602000000    -0.373000000
H     4.099000000    -1.327000000    -0.803000000
H     4.377000000     0.155000000    -0.931000000
O     3.270000000     0.075000000    -4.320000000
H     2.752000000    -0.655000000    -3.981000000
H     2.730000000     0.449000000    -5.016000000
O     4.380000000     1.366000000     1.715000000
H     4.519000000     1.995000000     1.007000000
H     4.476000000     0.510000000     1.298000000
O    -4.120000000    -3.933000000    -0.639000000
H    -4.475000000    -3.069000000    -0.430000000
H    -3.203000000    -3.888000000    -0.367000000
O     3.257000000    -2.439000000    -2.184000000
H     2.450000000    -2.198000000    -2.638000000
H     3.882000000    -2.620000000    -2.886000000
O     1.021000000    -7.684000000     0.199000000
H     0.793000000    -7.311000000     1.051000000
H     0.961000000    -6.947000000    -0.409000000
O    -1.138000000     0.351000000     5.592000000
H    -1.858000000     0.765000000     6.068000000
H    -1.543000000    -0.391000000     5.144000000
