161
-3034.76716
C    -0.053000000    -0.962000000    -1.142000000
H     0.082000000    -1.524000000    -2.063000000
C     0.734000000     0.180000000    -1.081000000
H     1.380000000     0.486000000    -1.900000000
C     0.761000000     0.944000000     0.060000000
C     1.511000000     2.252000000     0.268000000
H     2.479000000     2.132000000    -0.223000000
H     1.057000000     3.126000000    -0.204000000
H     1.662000000     2.479000000     1.326000000
C    -0.022000000     0.556000000     1.102000000
H    -0.001000000     1.186000000     1.987000000
C    -0.788000000    -0.592000000     1.042000000
H    -1.491000000    -0.725000000     1.861000000
C    -0.847000000    -1.387000000    -0.116000000
C    -1.880000000    -2.448000000    -0.264000000
O    -2.615000000    -2.670000000     0.679000000
O    -1.975000000    -3.027000000    -1.330000000
O    -0.792000000    -3.693000000    -6.602000000
H    -1.724000000    -3.815000000    -6.423000000
H    -0.386000000    -3.646000000    -5.737000000
O     0.440000000     3.875000000    -3.809000000
H     1.064000000     4.190000000    -3.154000000
H     0.139000000     4.668000000    -4.253000000
O     1.503000000     5.410000000    -1.543000000
H     1.772000000     5.372000000    -0.625000000
H     1.025000000     6.236000000    -1.618000000
O    -3.758000000    -0.041000000    -2.882000000
H    -3.212000000     0.609000000    -2.440000000
H    -4.005000000     0.376000000    -3.708000000
O    -0.352000000    -6.103000000    -4.362000000
H     0.552000000    -6.263000000    -4.635000000
H    -0.272000000    -5.636000000    -3.531000000
O     2.404000000     5.534000000     1.159000000
H     3.257000000     5.135000000     0.987000000
H     2.376000000     5.640000000     2.110000000
O    -5.747000000    -3.634000000     3.948000000
H    -6.245000000    -3.727000000     3.136000000
H    -5.941000000    -2.746000000     4.248000000
O     4.537000000     4.606000000    -2.176000000
H     3.632000000     4.902000000    -2.271000000
H     4.697000000     4.624000000    -1.233000000
O     6.002000000     0.241000000     0.667000000
H     5.617000000     0.490000000     1.507000000
H     6.807000000     0.756000000     0.610000000
O    -4.132000000    -0.369000000     1.000000000
H    -3.956000000     0.005000000     1.864000000
H    -3.820000000    -1.272000000     1.062000000
O     0.298000000    -1.296000000    -4.804000000
H    -0.566000000    -1.599000000    -4.524000000
H     0.242000000    -0.341000000    -4.761000000
O     4.950000000     2.235000000     4.839000000
H     4.000000000     2.306000000     4.931000000
H     5.253000000     1.946000000     5.699000000
O    -6.295000000    -3.980000000     1.063000000
H    -5.450000000    -4.393000000     1.240000000
H    -6.077000000    -3.186000000     0.574000000
O    -0.937000000    -6.531000000     0.566000000
H    -1.614000000    -6.238000000     1.177000000
H    -1.349000000    -7.243000000     0.077000000
O     0.524000000    -1.441000000     4.964000000
H    -0.081000000    -0.984000000     4.380000000
H     0.564000000    -2.332000000     4.618000000
O     3.592000000    -0.602000000    -0.512000000
H     4.417000000    -0.474000000    -0.042000000
H     3.257000000    -1.436000000    -0.183000000
O     2.465000000     0.913000000     4.374000000
H     2.142000000     0.541000000     5.195000000
H     2.218000000     0.273000000     3.707000000
O     2.235000000    -1.160000000     2.381000000
H     2.552000000    -1.830000000     1.775000000
H     1.413000000    -0.858000000     1.994000000
O    -2.053000000    -2.058000000    -3.969000000
H    -2.550000000    -1.393000000    -3.492000000
H    -2.163000000    -2.856000000    -3.452000000
O     4.720000000    -0.048000000     2.904000000
H     3.792000000    -0.229000000     2.754000000
H     4.725000000     0.645000000     3.564000000
O     0.728000000    -3.951000000     3.870000000
H     0.616000000    -4.571000000     4.591000000
H     0.899000000    -4.501000000     3.105000000
O     1.942000000    -1.754000000    -7.037000000
H     1.467000000    -1.655000000    -6.212000000
H     2.016000000    -0.863000000    -7.379000000
O    -4.099000000    -5.986000000     1.393000000
H    -4.105000000    -5.871000000     0.443000000
H    -4.817000000    -6.595000000     1.565000000
O    -4.131000000     2.227000000    -0.802000000
H    -3.322000000     2.221000000    -1.313000000
H    -4.118000000     1.398000000    -0.324000000
O     0.862000000     0.734000000     6.794000000
H     0.547000000    -0.090000000     6.422000000
H     0.080000000     1.144000000     7.165000000
O    -3.408000000    -0.554000000     6.201000000
H    -3.441000000    -0.965000000     5.337000000
H    -3.096000000    -1.246000000     6.784000000
O     2.961000000    -4.883000000    -1.970000000
H     3.305000000    -5.774000000    -1.916000000
H     2.097000000    -4.983000000    -2.371000000
O     1.962000000     3.654000000     4.390000000
H     1.393000000     3.977000000     5.088000000
H     1.946000000     2.702000000     4.489000000
O     3.733000000     5.660000000     4.025000000
H     3.662000000     6.093000000     4.876000000
H     2.982000000     5.068000000     3.994000000
O     3.949000000    -2.421000000    -2.972000000
H     3.414000000    -1.757000000    -2.537000000
H     3.751000000    -3.232000000    -2.504000000
O    -5.958000000    -1.773000000    -0.531000000
H    -5.394000000    -1.173000000    -0.042000000
H    -5.401000000    -2.105000000    -1.235000000
O    -4.137000000    -5.758000000    -1.606000000
H    -3.882000000    -4.840000000    -1.515000000
H    -3.370000000    -6.182000000    -1.992000000
O     2.846000000    -3.249000000     0.409000000
H     2.727000000    -3.725000000    -0.413000000
H     3.130000000    -3.916000000     1.033000000
O    -2.783000000    -5.956000000     3.654000000
H    -2.127000000    -6.616000000     3.426000000
H    -3.420000000    -5.996000000     2.940000000
O    -3.513000000    -2.444000000     3.516000000
H    -3.265000000    -2.647000000     2.614000000
H    -3.989000000    -3.219000000     3.814000000
O    -0.594000000     1.391000000    -4.942000000
H    -1.519000000     1.366000000    -4.698000000
H    -0.270000000     2.211000000    -4.568000000
O     4.176000000     0.947000000    -5.205000000
H     3.446000000     1.566000000    -5.182000000
H     4.361000000     0.761000000    -4.285000000
O    -1.646000000     2.227000000    -2.202000000
H    -1.128000000     2.973000000    -2.504000000
H    -1.029000000     1.495000000    -2.196000000
O     4.679000000     1.436000000    -2.564000000
H     4.912000000     2.336000000    -2.338000000
H     4.553000000     1.002000000    -1.720000000
O    -5.807000000    -3.269000000    -4.436000000
H    -6.669000000    -3.637000000    -4.243000000
H    -5.370000000    -3.225000000    -3.585000000
O    -1.575000000     5.942000000     1.659000000
H    -1.754000000     6.290000000     2.533000000
H    -0.920000000     5.260000000     1.803000000
O     2.490000000     3.279000000    -5.794000000
H     2.893000000     4.014000000    -6.257000000
H     1.964000000     3.689000000    -5.108000000
O    -2.048000000    -7.335000000    -2.491000000
H    -1.255000000    -7.021000000    -2.924000000
H    -1.751000000    -8.063000000    -1.945000000
O    -4.248000000    -2.559000000    -2.174000000
H    -3.329000000    -2.674000000    -1.932000000
H    -4.300000000    -1.661000000    -2.500000000
O     4.786000000     4.169000000     0.733000000
H     4.435000000     3.281000000     0.662000000
H     5.550000000     4.080000000     1.302000000
O    -3.854000000     4.335000000     0.856000000
H    -2.931000000     4.588000000     0.832000000
H    -3.909000000     3.576000000     0.275000000
O    -0.119000000    -4.921000000    -2.038000000
H    -0.130000000    -5.395000000    -1.207000000
H    -0.745000000    -4.208000000    -1.915000000
O    -4.732000000     1.403000000     3.938000000
H    -4.780000000     2.300000000     3.606000000
H    -4.393000000     1.495000000     4.828000000
