161
-3038.57450
C     0.436000000    -1.406000000    -0.244000000
H     0.871000000    -2.401000000    -0.268000000
C     1.316000000    -0.329000000    -0.140000000
H     2.375000000    -0.566000000    -0.210000000
C     0.766000000     0.981000000    -0.083000000
C     1.609000000     2.201000000     0.023000000
H     2.272000000     2.268000000    -0.842000000
H     1.010000000     3.114000000     0.049000000
H     2.188000000     2.182000000     0.948000000
C    -0.638000000     1.138000000    -0.038000000
H    -0.992000000     2.160000000     0.066000000
C    -1.478000000     0.062000000     0.092000000
H    -2.517000000     0.163000000     0.396000000
C    -0.922000000    -1.225000000    -0.032000000
C    -1.834000000    -2.465000000     0.044000000
O    -2.971000000    -2.296000000     0.519000000
O    -1.495000000    -3.582000000    -0.285000000
O     3.027000000    -1.452000000    -5.110000000
H     3.516000000    -2.195000000    -4.757000000
H     3.292000000    -0.710000000    -4.566000000
O    -2.812000000     3.409000000    -2.518000000
H    -2.556000000     2.500000000    -2.674000000
H    -1.985000000     3.872000000    -2.388000000
O    -4.786000000    -0.598000000    -0.555000000
H    -4.440000000    -0.752000000    -1.435000000
H    -4.206000000    -1.097000000     0.021000000
O     4.942000000     3.397000000     1.372000000
H     4.699000000     2.799000000     2.079000000
H     5.824000000     3.691000000     1.599000000
O     4.089000000    -3.511000000    -3.313000000
H     3.390000000    -3.897000000    -2.785000000
H     4.625000000    -3.028000000    -2.684000000
O    -3.264000000    -3.681000000     5.727000000
H    -2.716000000    -3.155000000     5.145000000
H    -2.676000000    -4.356000000     6.065000000
O     0.600000000     4.761000000     3.172000000
H     0.304000000     3.855000000     3.082000000
H     1.228000000     4.736000000     3.894000000
O    -5.670000000     3.613000000     1.932000000
H    -5.459000000     3.109000000     1.146000000
H    -4.953000000     4.243000000     2.012000000
O     3.124000000    -5.374000000    -1.350000000
H     3.413000000    -5.862000000    -0.579000000
H     2.225000000    -5.116000000    -1.147000000
O     4.128000000     3.327000000    -2.679000000
H     5.082000000     3.299000000    -2.609000000
H     3.846000000     3.826000000    -1.912000000
O    -3.628000000    -6.267000000     3.746000000
H    -3.368000000    -5.373000000     3.972000000
H    -3.039000000    -6.515000000     3.034000000
O    -5.164000000    -2.749000000    -3.255000000
H    -5.188000000    -3.134000000    -4.130000000
H    -4.492000000    -3.250000000    -2.791000000
O    -4.470000000    -2.234000000     2.845000000
H    -4.975000000    -3.042000000     2.939000000
H    -4.040000000    -2.318000000     1.994000000
O     3.304000000     0.922000000    -3.360000000
H     2.561000000     0.614000000    -2.840000000
H     3.485000000     1.800000000    -3.024000000
O    -8.008000000    -4.127000000     0.223000000
H    -7.159000000    -4.490000000     0.474000000
H    -7.965000000    -3.209000000     0.492000000
O    -2.384000000    -5.212000000     1.564000000
H    -2.184000000    -5.940000000     0.976000000
H    -2.549000000    -4.472000000     0.981000000
O    -1.267000000    -3.275000000    -4.477000000
H    -0.528000000    -3.227000000    -5.084000000
H    -1.615000000    -2.384000000    -4.453000000
O    -5.640000000    -4.918000000     1.209000000
H    -5.063000000    -5.673000000     1.325000000
H    -5.917000000    -4.691000000     2.097000000
O     5.886000000    -2.016000000     1.599000000
H     5.997000000    -2.529000000     2.400000000
H     5.826000000    -1.110000000     1.902000000
O    -6.230000000    -5.396000000    -2.149000000
H    -5.671000000    -5.812000000    -2.805000000
H    -5.761000000    -4.598000000    -1.906000000
O     0.600000000     0.244000000    -4.164000000
H     0.757000000     0.814000000    -4.917000000
H     0.931000000    -0.611000000    -4.438000000
O     1.721000000    -3.537000000     2.418000000
H     0.963000000    -3.854000000     2.908000000
H     1.615000000    -3.911000000     1.544000000
O     0.109000000     2.300000000     3.853000000
H     0.950000000     1.960000000     3.547000000
H    -0.427000000     1.520000000     3.996000000
O     0.826000000     7.143000000    -1.624000000
H     0.519000000     6.859000000    -0.763000000
H     0.543000000     6.450000000    -2.220000000
O     6.884000000     2.536000000    -2.272000000
H     6.968000000     1.793000000    -2.871000000
H     6.526000000     2.157000000    -1.469000000
O     5.808000000     0.355000000    -3.894000000
H     4.950000000     0.501000000    -3.495000000
H     5.810000000     0.919000000    -4.668000000
O    -0.434000000    -6.163000000    -4.214000000
H    -0.942000000    -5.494000000    -4.674000000
H    -1.035000000    -6.508000000    -3.554000000
O    -1.907000000     0.921000000    -2.788000000
H    -1.548000000     0.766000000    -1.914000000
H    -1.221000000     0.624000000    -3.385000000
O     6.366000000     0.742000000     0.122000000
H     5.412000000     0.797000000     0.183000000
H     6.684000000     1.283000000     0.845000000
O     5.580000000    -2.924000000    -1.148000000
H     5.165000000    -3.697000000    -0.766000000
H     5.774000000    -2.361000000    -0.399000000
O    -0.840000000    -3.913000000     3.376000000
H    -0.982000000    -2.976000000     3.241000000
H    -1.457000000    -4.338000000     2.781000000
O     1.793000000    -1.402000000     4.300000000
H     2.603000000    -0.937000000     4.091000000
H     1.784000000    -2.149000000     3.702000000
O    -1.549000000    -1.136000000     2.937000000
H    -2.183000000    -1.272000000     2.232000000
H    -2.029000000    -0.637000000     3.598000000
O    -4.543000000     2.290000000    -0.458000000
H    -3.840000000     2.488000000    -1.075000000
H    -4.634000000     1.338000000    -0.496000000
O    -7.644000000    -0.697000000    -0.264000000
H    -7.488000000    -0.050000000     0.424000000
H    -6.797000000    -1.127000000    -0.383000000
O     2.673000000     4.289000000    -4.811000000
H     3.173000000     4.136000000    -4.009000000
H     2.382000000     5.198000000    -4.742000000
O    -0.481000000     5.519000000    -3.498000000
H    -0.628000000     4.812000000    -4.126000000
H    -0.641000000     6.320000000    -3.997000000
O    -2.660000000    -7.264000000    -2.018000000
H    -3.065000000    -7.723000000    -2.754000000
H    -2.801000000    -6.337000000    -2.208000000
O     1.633000000     6.096000000     1.045000000
H     1.368000000     5.585000000     1.810000000
H     1.554000000     7.008000000     1.327000000
O     3.422000000     4.787000000    -0.534000000
H     2.850000000     5.386000000    -0.054000000
H     4.013000000     4.434000000     0.131000000
O    -1.580000000    -7.532000000     0.346000000
H    -0.762000000    -8.025000000     0.274000000
H    -1.955000000    -7.561000000    -0.534000000
O    -3.297000000     5.331000000     2.100000000
H    -2.833000000     5.029000000     1.318000000
H    -3.137000000     4.648000000     2.751000000
O    -2.629000000    -4.565000000    -2.568000000
H    -2.319000000    -4.107000000    -1.787000000
H    -2.279000000    -4.057000000    -3.299000000
O    -4.639000000     5.483000000    -1.700000000
H    -5.435000000     4.968000000    -1.566000000
H    -3.968000000     4.835000000    -1.916000000
O     2.883000000     2.486000000     4.543000000
H     2.977000000     3.432000000     4.432000000
H     3.455000000     2.272000000     5.280000000
O     5.831000000     0.370000000     3.092000000
H     6.424000000     0.628000000     3.797000000
H     5.048000000     0.052000000     3.543000000
O    -1.530000000     5.034000000     0.144000000
H    -1.710000000     5.847000000    -0.328000000
H    -0.920000000     5.288000000     0.836000000
O     0.673000000    -5.291000000    -0.103000000
H     0.209000000    -6.025000000    -0.507000000
H     0.069000000    -4.553000000    -0.183000000
