161
-3041.55799
C     0.046000000    -1.310000000    -0.735000000
H     0.171000000    -2.149000000    -1.416000000
C     0.642000000    -0.073000000    -1.106000000
H     1.249000000    -0.102000000    -2.007000000
C     0.516000000     1.055000000    -0.367000000
C     1.244000000     2.374000000    -0.728000000
H     2.298000000     2.184000000    -0.515000000
H     1.044000000     2.753000000    -1.732000000
H     1.024000000     3.164000000    -0.007000000
C    -0.343000000     1.062000000     0.755000000
H    -0.429000000     2.020000000     1.261000000
C    -0.938000000    -0.196000000     1.155000000
H    -1.547000000    -0.347000000     2.042000000
C    -0.631000000    -1.373000000     0.439000000
C    -1.282000000    -2.674000000     0.831000000
O    -1.720000000    -2.741000000     2.020000000
O    -1.348000000    -3.655000000     0.107000000
O     4.900000000    -1.915000000    -3.623000000
H     4.846000000    -2.810000000    -3.288000000
H     4.599000000    -1.369000000    -2.897000000
O    -2.600000000     3.965000000    -1.143000000
H    -1.829000000     4.182000000    -0.619000000
H    -2.384000000     3.128000000    -1.553000000
O    -4.430000000    -2.007000000    -0.249000000
H    -5.209000000    -2.420000000    -0.622000000
H    -3.867000000    -2.739000000     0.001000000
O     4.570000000     3.480000000     0.530000000
H     5.032000000     4.208000000     0.945000000
H     4.899000000     2.700000000     0.978000000
O    -3.294000000    -4.760000000     5.409000000
H    -2.865000000    -4.861000000     4.559000000
H    -2.741000000    -4.140000000     5.884000000
O     2.458000000     4.104000000     2.498000000
H     2.927000000     3.938000000     1.681000000
H     3.063000000     3.820000000     3.184000000
O    -6.098000000     1.591000000     0.870000000
H    -5.199000000     1.450000000     0.572000000
H    -6.229000000     0.937000000     1.556000000
O     3.478000000    -5.371000000    -0.304000000
H     3.540000000    -5.617000000     0.619000000
H     2.549000000    -5.459000000    -0.514000000
O     6.024000000     2.527000000    -1.955000000
H     6.623000000     1.935000000    -1.501000000
H     5.903000000     3.257000000    -1.349000000
O     1.484000000     5.644000000    -5.733000000
H     1.295000000     5.025000000    -5.028000000
H     1.102000000     6.470000000    -5.436000000
O    -4.388000000    -2.850000000     2.716000000
H    -4.816000000    -3.700000000     2.613000000
H    -3.487000000    -2.999000000     2.429000000
O     3.930000000    -0.211000000    -1.724000000
H     3.025000000     0.053000000    -1.887000000
H     4.393000000     0.610000000    -1.556000000
O    -1.352000000    -2.723000000     6.284000000
H    -0.451000000    -2.885000000     6.006000000
H    -1.654000000    -2.013000000     5.718000000
O    -3.458000000     3.921000000     1.724000000
H    -3.485000000     3.212000000     1.081000000
H    -2.617000000     4.350000000     1.573000000
O     2.931000000    -0.935000000    -5.582000000
H     3.525000000    -1.388000000    -4.983000000
H     3.237000000    -1.182000000    -6.455000000
O    -2.214000000    -5.393000000     2.184000000
H    -1.893000000    -5.891000000     1.431000000
H    -1.806000000    -4.532000000     2.093000000
O    -1.433000000    -1.940000000    -3.935000000
H    -0.872000000    -1.165000000    -3.975000000
H    -2.287000000    -1.633000000    -4.238000000
O    -5.812000000    -0.526000000     2.702000000
H    -5.648000000    -0.447000000     3.642000000
H    -5.330000000    -1.310000000     2.439000000
O     0.048000000     0.274000000    -4.695000000
H    -0.162000000     1.042000000    -5.227000000
H     0.777000000    -0.143000000    -5.154000000
O     1.025000000     3.400000000    -4.127000000
H     1.570000000     2.691000000    -4.466000000
H     0.248000000     3.393000000    -4.684000000
O     1.131000000    -0.945000000     6.023000000
H     1.152000000    -1.291000000     5.131000000
H     2.035000000    -0.684000000     6.201000000
O    -1.136000000     0.819000000     5.980000000
H    -1.687000000     0.347000000     5.355000000
H    -0.381000000     0.246000000     6.114000000
O     2.305000000    -4.368000000     2.763000000
H     2.773000000    -5.201000000     2.700000000
H     1.938000000    -4.234000000     1.889000000
O     0.959000000    -4.225000000     5.910000000
H     1.113000000    -4.675000000     6.741000000
H     1.824000000    -3.917000000     5.640000000
O    -4.105000000    -7.301000000     3.181000000
H    -3.558000000    -6.701000000     2.673000000
H    -3.503000000    -7.700000000     3.809000000
O     1.768000000     0.581000000     2.790000000
H     1.718000000    -0.305000000     3.151000000
H     1.394000000     0.504000000     1.912000000
O    -0.238000000     8.257000000    -0.969000000
H     0.028000000     8.554000000    -1.840000000
H    -0.097000000     7.311000000    -0.986000000
O     1.520000000    -5.731000000    -2.916000000
H     1.482000000    -6.527000000    -2.384000000
H     0.755000000    -5.225000000    -2.643000000
O    -1.609000000     1.625000000    -2.360000000
H    -0.837000000     1.354000000    -1.863000000
H    -1.608000000     1.059000000    -3.132000000
O     3.993000000     5.474000000    -3.049000000
H     4.383000000     6.348000000    -3.027000000
H     3.087000000     5.609000000    -2.773000000
O     1.113000000    -3.576000000    -6.202000000
H     1.951000000    -4.035000000    -6.149000000
H     1.347000000    -2.648000000    -6.181000000
O    -0.408000000    -6.677000000     4.423000000
H    -0.284000000    -6.113000000     5.186000000
H    -0.279000000    -6.097000000     3.673000000
O     0.909000000    -2.123000000     3.535000000
H     1.429000000    -2.915000000     3.397000000
H     0.145000000    -2.236000000     2.970000000
O    -2.605000000    -1.423000000     4.285000000
H    -2.287000000    -1.785000000     3.458000000
H    -3.529000000    -1.670000000     4.316000000
O    -0.750000000     2.738000000    -6.124000000
H    -1.464000000     3.376000000    -6.101000000
H    -0.353000000     2.854000000    -6.987000000
O     2.879000000     1.782000000    -5.032000000
H     3.776000000     1.995000000    -4.774000000
H     2.830000000     0.829000000    -4.963000000
O    -3.708000000     0.701000000    -0.152000000
H    -2.767000000     0.752000000    -0.319000000
H    -3.949000000    -0.190000000    -0.407000000
O    -4.463000000     4.148000000     4.135000000
H    -4.072000000     4.006000000     3.272000000
H    -5.396000000     3.977000000     4.006000000
O     5.310000000     3.078000000    -4.449000000
H     5.683000000     2.873000000    -3.592000000
H     4.776000000     3.858000000    -4.298000000
O     0.288000000     5.710000000    -2.217000000
H     0.453000000     4.776000000    -2.341000000
H     0.198000000     6.058000000    -3.104000000
O     0.973000000     6.617000000     2.521000000
H     1.424000000     5.808000000     2.280000000
H     0.863000000     6.558000000     3.470000000
O    -4.559000000     1.929000000    -3.371000000
H    -3.670000000     2.146000000    -3.089000000
H    -5.069000000     1.912000000    -2.561000000
O    -3.260000000    -4.255000000    -4.717000000
H    -2.619000000    -3.926000000    -4.087000000
H    -3.573000000    -3.472000000    -5.170000000
O    -1.467000000    -7.035000000     0.025000000
H    -1.898000000    -7.888000000     0.090000000
H    -1.174000000    -6.983000000    -0.885000000
O    -1.116000000    -4.337000000    -2.514000000
H    -1.242000000    -4.113000000    -1.592000000
H    -1.056000000    -3.491000000    -2.959000000
O     4.659000000     1.520000000     2.977000000
H     3.733000000     1.279000000     3.001000000
H     4.900000000     1.634000000     3.896000000
O    -0.982000000     4.939000000     1.448000000
H    -1.023000000     5.895000000     1.480000000
H    -0.135000000     4.722000000     1.838000000
O     0.769000000    -5.214000000    -0.052000000
H     0.465000000    -6.096000000    -0.263000000
H    -0.014000000    -4.757000000     0.253000000
