161
-3036.44457
C     1.096000000    -0.801000000    -0.372000000
H     2.049000000    -1.302000000    -0.518000000
C     0.900000000     0.545000000    -0.708000000
H     1.584000000     1.161000000    -1.287000000
C    -0.217000000     1.183000000    -0.295000000
C    -0.387000000     2.636000000    -0.553000000
H    -0.609000000     2.720000000    -1.619000000
H    -1.298000000     3.044000000    -0.110000000
H     0.465000000     3.314000000    -0.465000000
C    -1.207000000     0.467000000     0.456000000
H    -2.035000000     1.002000000     0.913000000
C    -1.031000000    -0.932000000     0.653000000
H    -1.650000000    -1.570000000     1.280000000
C     0.141000000    -1.588000000     0.237000000
C     0.501000000    -2.988000000     0.622000000
O     0.266000000    -3.442000000     1.731000000
O     1.427000000    -3.447000000     0.042000000
O     0.922000000     3.425000000    -5.369000000
H     1.184000000     3.012000000    -4.546000000
H     1.211000000     4.333000000    -5.284000000
O    -2.128000000    -0.869000000     3.763000000
H    -1.452000000    -0.849000000     3.085000000
H    -2.120000000    -1.772000000     4.082000000
O     4.195000000     0.012000000    -1.984000000
H     4.519000000    -0.885000000    -2.058000000
H     4.458000000     0.290000000    -1.107000000
O    -3.517000000     7.187000000    -0.733000000
H    -3.171000000     6.793000000     0.067000000
H    -3.990000000     7.963000000    -0.432000000
O     1.171000000    -3.516000000     6.424000000
H     2.121000000    -3.411000000     6.481000000
H     1.038000000    -4.084000000     5.665000000
O    -1.107000000     3.996000000     2.455000000
H    -0.883000000     3.153000000     2.850000000
H    -0.761000000     4.646000000     3.066000000
O     2.073000000    -3.310000000    -2.512000000
H     2.957000000    -2.974000000    -2.661000000
H     1.977000000    -3.318000000    -1.560000000
O     4.678000000     4.797000000    -2.694000000
H     4.465000000     4.937000000    -1.772000000
H     5.052000000     3.917000000    -2.724000000
O    -4.085000000     0.778000000     2.815000000
H    -3.903000000     1.626000000     3.219000000
H    -3.358000000     0.220000000     3.091000000
O     3.873000000     5.213000000     0.850000000
H     3.328000000     5.447000000     0.099000000
H     3.728000000     5.919000000     1.480000000
O    -0.804000000    -6.375000000     5.557000000
H    -0.371000000    -7.210000000     5.376000000
H    -0.440000000    -5.771000000     4.910000000
O     4.951000000     0.368000000     0.694000000
H     4.732000000     1.197000000     1.118000000
H     5.124000000    -0.234000000     1.418000000
O    -6.980000000    -0.093000000    -1.269000000
H    -6.771000000    -1.026000000    -1.233000000
H    -6.253000000     0.334000000    -0.815000000
O    -0.110000000     1.501000000     3.429000000
H     0.799000000     1.239000000     3.579000000
H    -0.264000000     1.311000000     2.503000000
O     4.329000000     2.598000000     1.867000000
H     5.153000000     2.794000000     1.421000000
H     3.763000000     3.342000000     1.660000000
O    -2.065000000    -0.707000000    -2.502000000
H    -1.657000000    -0.305000000    -1.735000000
H    -1.348000000    -1.168000000    -2.939000000
O     3.701000000    -4.035000000     1.620000000
H     3.818000000    -4.981000000     1.527000000
H     2.948000000    -3.831000000     1.065000000
O     0.659000000    -5.061000000     3.940000000
H     1.243000000    -5.705000000     3.538000000
H     0.427000000    -4.470000000     3.224000000
O    -0.709000000    -8.227000000     1.908000000
H    -1.375000000    -7.847000000     1.335000000
H     0.100000000    -7.775000000     1.668000000
O    -4.734000000    -3.119000000     3.342000000
H    -5.135000000    -2.960000000     2.488000000
H    -3.797000000    -3.187000000     3.157000000
O    -0.419000000    -1.127000000     6.062000000
H     0.031000000    -1.909000000     6.383000000
H    -0.190000000    -1.083000000     5.134000000
O     4.168000000    -6.711000000     1.201000000
H     5.046000000    -6.423000000     0.951000000
H     3.798000000    -7.079000000     0.398000000
O     2.560000000     1.227000000     3.408000000
H     2.804000000     0.309000000     3.284000000
H     3.242000000     1.720000000     2.952000000
O     4.945000000    -2.694000000    -2.351000000
H     4.928000000    -3.624000000    -2.126000000
H     5.784000000    -2.382000000    -2.014000000
O    -2.719000000     4.675000000    -2.297000000
H    -3.068000000     5.563000000    -2.213000000
H    -2.370000000     4.639000000    -3.187000000
O    -1.586000000     4.602000000    -4.601000000
H    -1.309000000     5.518000000    -4.606000000
H    -0.769000000     4.105000000    -4.565000000
O     0.137000000     6.744000000     1.174000000
H    -0.570000000     6.118000000     1.016000000
H    -0.235000000     7.592000000     0.934000000
O     0.117000000    -1.386000000    -3.752000000
H     0.003000000    -1.737000000    -4.636000000
H     0.827000000    -1.907000000    -3.377000000
O    -7.090000000     0.645000000     2.421000000
H    -6.218000000     0.308000000     2.627000000
H    -7.261000000     1.297000000     3.100000000
O    -0.249000000    -5.227000000    -2.703000000
H    -0.682000000    -4.613000000    -2.111000000
H     0.638000000    -4.881000000    -2.799000000
O     3.697000000    -1.287000000     3.034000000
H     4.397000000    -1.052000000     3.642000000
H     4.056000000    -2.013000000     2.523000000
O     0.829000000    -1.689000000     3.555000000
H     0.630000000    -2.356000000     2.898000000
H     1.770000000    -1.540000000     3.467000000
O    -2.546000000     1.811000000    -5.465000000
H    -2.041000000     2.093000000    -4.702000000
H    -2.756000000     0.894000000    -5.287000000
O     3.162000000     1.636000000    -3.894000000
H     3.590000000     1.200000000    -3.157000000
H     2.334000000     1.167000000    -4.002000000
O    -2.503000000    -6.856000000     0.409000000
H    -3.305000000    -6.845000000    -0.114000000
H    -1.997000000    -6.110000000     0.087000000
O     6.468000000    -3.519000000     1.332000000
H     5.638000000    -3.499000000     0.855000000
H     6.261000000    -3.961000000     2.155000000
O     0.918000000    -6.043000000     0.369000000
H     0.754000000    -5.168000000     0.722000000
H     1.536000000    -5.900000000    -0.348000000
O     3.254000000    -7.214000000    -1.502000000
H     3.937000000    -7.823000000    -1.783000000
H     2.434000000    -7.641000000    -1.752000000
O     2.226000000     6.786000000    -0.563000000
H     1.545000000     6.750000000     0.109000000
H     1.934000000     7.470000000    -1.165000000
O    -3.799000000    -2.296000000     0.039000000
H    -3.781000000    -1.512000000    -0.509000000
H    -4.725000000    -2.532000000     0.090000000
O    -5.117000000     1.355000000     0.144000000
H    -4.948000000     1.291000000     1.084000000
H    -4.827000000     2.236000000    -0.092000000
O     5.234000000    -5.343000000    -1.959000000
H     4.365000000    -5.696000000    -2.151000000
H     5.702000000    -5.390000000    -2.793000000
O    -3.692000000     3.718000000    -0.043000000
H    -2.884000000     3.205000000    -0.032000000
H    -3.586000000     4.314000000    -0.785000000
O    -2.098000000    -3.679000000     3.208000000
H    -1.335000000    -3.621000000     2.632000000
H    -2.318000000    -4.611000000     3.220000000
O    -3.280000000     5.579000000     1.911000000
H    -3.765000000     5.043000000     1.283000000
H    -2.465000000     5.099000000     2.056000000
O    -2.220000000    -4.369000000    -1.091000000
H    -2.994000000    -4.504000000    -1.637000000
H    -2.448000000    -3.629000000    -0.529000000
O     5.828000000     2.243000000    -2.327000000
H     5.043000000     1.729000000    -2.140000000
H     6.476000000     1.929000000    -1.697000000
O     2.230000000    -7.488000000     2.846000000
H     1.665000000    -7.894000000     2.189000000
H     3.002000000    -7.206000000     2.357000000
