161
-3038.90413
C     1.457000000    -0.350000000    -0.067000000
H     2.507000000    -0.582000000    -0.227000000
C     0.943000000     0.927000000    -0.285000000
H     1.562000000     1.787000000    -0.526000000
C    -0.405000000     1.102000000    -0.172000000
C    -0.935000000     2.419000000    -0.549000000
H    -1.524000000     2.747000000     0.310000000
H    -0.173000000     3.173000000    -0.753000000
H    -1.605000000     2.344000000    -1.408000000
C    -1.294000000     0.071000000     0.098000000
H    -2.365000000     0.256000000     0.108000000
C    -0.805000000    -1.185000000     0.394000000
H    -1.565000000    -1.960000000     0.438000000
C     0.565000000    -1.401000000     0.288000000
C     1.091000000    -2.750000000     0.620000000
O     0.373000000    -3.719000000     0.731000000
O     2.179000000    -2.887000000     0.993000000
O     3.186000000     2.042000000    -3.134000000
H     3.591000000     1.677000000    -2.347000000
H     3.429000000     2.968000000    -3.121000000
O     4.636000000     2.574000000    -0.343000000
H     5.093000000     2.064000000     0.325000000
H     4.175000000     3.254000000     0.148000000
O    -3.325000000     4.490000000    -1.741000000
H    -4.143000000     4.765000000    -2.154000000
H    -2.649000000     5.001000000    -2.185000000
O     3.240000000    -6.416000000     2.147000000
H     4.037000000    -6.151000000     2.606000000
H     2.572000000    -5.801000000     2.451000000
O    -1.810000000     4.451000000    -5.086000000
H    -1.044000000     4.351000000    -5.652000000
H    -1.614000000     5.220000000    -4.551000000
O     3.528000000     4.929000000     0.074000000
H     3.350000000     5.850000000     0.265000000
H     3.931000000     4.939000000    -0.795000000
O    -4.707000000     2.301000000     0.007000000
H    -4.084000000     2.826000000    -0.495000000
H    -4.258000000     2.121000000     0.833000000
O     6.000000000     0.879000000     1.237000000
H     6.266000000     0.060000000     0.818000000
H     5.977000000     0.673000000     2.172000000
O    -3.439000000     1.826000000     2.436000000
H    -3.602000000     0.979000000     2.851000000
H    -2.486000000     1.910000000     2.430000000
O    -0.617000000     0.321000000     2.963000000
H     0.257000000     0.563000000     3.270000000
H    -0.526000000     0.249000000     2.013000000
O     2.971000000     3.952000000     2.703000000
H     2.345000000     4.662000000     2.845000000
H     3.355000000     4.138000000     1.847000000
O    -1.299000000    -0.324000000    -3.226000000
H    -1.655000000    -0.749000000    -2.445000000
H    -0.554000000    -0.871000000    -3.476000000
O     5.243000000    -4.160000000     0.646000000
H     4.412000000    -4.464000000     0.281000000
H     5.083000000    -4.101000000     1.588000000
O     5.827000000    -0.899000000     3.602000000
H     5.138000000    -1.479000000     3.280000000
H     6.100000000    -1.288000000     4.433000000
O     1.293000000    -4.382000000     3.321000000
H     1.429000000    -3.537000000     3.749000000
H     0.959000000    -4.160000000     2.452000000
O     1.182000000    -7.521000000     0.353000000
H     1.727000000    -7.234000000     1.085000000
H     1.503000000    -7.019000000    -0.396000000
O    -0.717000000    -7.784000000     4.049000000
H    -0.255000000    -7.657000000     4.878000000
H    -0.575000000    -6.968000000     3.569000000
O     1.177000000    -1.746000000     4.401000000
H     0.988000000    -1.204000000     5.166000000
H     0.369000000    -1.727000000     3.888000000
O     1.768000000     1.615000000     3.743000000
H     2.436000000     1.170000000     4.266000000
H     2.219000000     2.375000000     3.376000000
O     6.816000000    -1.717000000     0.160000000
H     6.649000000    -2.500000000     0.683000000
H     6.396000000    -1.896000000    -0.681000000
O    -0.358000000     4.218000000     1.861000000
H    -1.302000000     4.365000000     1.800000000
H    -0.196000000     3.467000000     1.291000000
O     0.789000000     5.511000000    -3.389000000
H    -0.119000000     5.642000000    -3.116000000
H     0.965000000     4.589000000    -3.200000000
O    -6.844000000     1.415000000    -1.482000000
H    -5.985000000     1.466000000    -1.062000000
H    -7.089000000     0.492000000    -1.413000000
O     4.965000000    -4.656000000     3.674000000
H     5.702000000    -4.526000000     4.271000000
H     4.452000000    -3.852000000     3.746000000
O    -0.476000000     2.050000000    -6.140000000
H    -1.340000000     2.460000000    -6.166000000
H    -0.134000000     2.264000000    -5.272000000
O    -5.887000000     5.075000000    -0.115000000
H    -5.830000000     5.471000000    -0.985000000
H    -5.371000000     4.271000000    -0.183000000
O     3.122000000    -2.525000000    -2.235000000
H     3.588000000    -2.521000000    -3.071000000
H     3.344000000    -1.685000000    -1.833000000
O     0.521000000    -2.480000000    -2.954000000
H     0.076000000    -3.219000000    -2.540000000
H     1.402000000    -2.491000000    -2.581000000
O     2.678000000    -3.619000000     6.187000000
H     2.297000000    -3.673000000     5.311000000
H     3.274000000    -2.872000000     6.143000000
O     3.548000000    -2.258000000     3.233000000
H     3.084000000    -1.729000000     3.881000000
H     2.969000000    -2.266000000     2.471000000
O    -2.208000000    -3.285000000     3.661000000
H    -1.743000000    -4.119000000     3.594000000
H    -2.450000000    -3.072000000     2.760000000
O     0.540000000     2.270000000    -3.805000000
H     1.374000000     2.212000000    -3.338000000
H     0.004000000     1.575000000    -3.424000000
O     4.561000000    -0.127000000    -1.759000000
H     4.798000000     0.345000000    -0.961000000
H     5.371000000    -0.159000000    -2.268000000
O     3.798000000     4.808000000    -3.020000000
H     3.477000000     5.533000000    -3.556000000
H     4.749000000     4.841000000    -3.118000000
O    -3.729000000    -4.169000000     1.348000000
H    -4.420000000    -4.735000000     1.003000000
H    -3.773000000    -3.380000000     0.808000000
O    -1.598000000     6.519000000    -2.797000000
H    -1.559000000     7.304000000    -3.342000000
H    -1.840000000     6.841000000    -1.929000000
O    -3.429000000     2.495000000    -3.908000000
H    -3.068000000     2.887000000    -3.112000000
H    -2.980000000     2.947000000    -4.622000000
O     2.695000000    -4.924000000    -0.700000000
H     2.378000000    -4.706000000     0.177000000
H     2.908000000    -4.078000000    -1.094000000
O     0.987000000    -6.541000000    -2.728000000
H     0.455000000    -5.764000000    -2.559000000
H     0.926000000    -6.671000000    -3.674000000
O    -4.358000000    -1.826000000     0.023000000
H    -5.267000000    -1.548000000    -0.093000000
H    -4.064000000    -2.058000000    -0.858000000
O    -4.218000000    -1.208000000     3.991000000
H    -3.559000000    -1.854000000     3.737000000
H    -5.043000000    -1.564000000     3.661000000
O     0.840000000     6.719000000     1.037000000
H     0.591000000     7.094000000     0.192000000
H     0.677000000     5.780000000     0.940000000
O    -1.506000000    -5.612000000     2.379000000
H    -0.798000000    -5.056000000     2.055000000
H    -2.269000000    -5.355000000     1.861000000
O     0.506000000     5.005000000     4.549000000
H     0.337000000     5.910000000     4.287000000
H     0.089000000     4.476000000     3.868000000
O    -0.673000000    -4.684000000    -1.527000000
H    -1.301000000    -5.338000000    -1.221000000
H    -0.001000000    -4.661000000    -0.846000000
O    -3.096000000     5.239000000     1.617000000
H    -2.945000000     5.992000000     1.046000000
H    -4.049000000     5.162000000     1.666000000
O    -4.071000000    -0.450000000    -4.348000000
H    -3.977000000     0.501000000    -4.281000000
H    -3.180000000    -0.786000000    -4.254000000
O    -2.781000000    -2.966000000    -2.021000000
H    -2.081000000    -3.557000000    -1.743000000
H    -2.776000000    -3.021000000    -2.977000000
