161
-3049.61893
C     0.670000000    -0.359000000     1.154000000
H     1.139000000    -0.410000000     2.133000000
C     0.535000000     0.905000000     0.721000000
H     1.039000000     1.730000000     1.217000000
C    -0.160000000     1.109000000    -0.470000000
C    -0.418000000     2.569000000    -0.841000000
H     0.526000000     3.042000000    -1.118000000
H    -0.991000000     2.599000000    -1.770000000
H    -0.915000000     3.163000000    -0.071000000
C    -0.644000000    -0.009000000    -1.182000000
H    -1.210000000     0.103000000    -2.103000000
C    -0.550000000    -1.280000000    -0.645000000
H    -1.057000000    -2.103000000    -1.141000000
C     0.159000000    -1.474000000     0.543000000
C     0.423000000    -2.841000000     1.100000000
O     0.485000000    -3.701000000     0.280000000
O     0.977000000    -3.043000000     2.190000000
O     2.165000000     5.307000000     3.826000000
H     2.741000000     6.026000000     3.566000000
H     2.219000000     4.684000000     3.102000000
O     4.624000000     3.507000000    -1.159000000
H     5.335000000     3.048000000    -1.605000000
H     4.176000000     3.989000000    -1.854000000
O    -1.049000000    -2.296000000     6.447000000
H    -0.536000000    -2.074000000     5.670000000
H    -1.405000000    -1.460000000     6.746000000
O    -0.177000000     2.959000000    -4.762000000
H     0.089000000     3.179000000    -5.654000000
H    -0.265000000     3.805000000    -4.323000000
O    -3.189000000     7.139000000     0.097000000
H    -2.903000000     6.309000000    -0.284000000
H    -3.951000000     7.393000000    -0.425000000
O     4.987000000    -4.693000000     2.261000000
H     4.740000000    -3.783000000     2.098000000
H     4.342000000    -5.007000000     2.895000000
O    -4.851000000    -0.887000000    -0.809000000
H    -3.915000000    -0.939000000    -1.001000000
H    -4.924000000    -0.184000000    -0.162000000
O    -2.518000000     5.856000000     2.468000000
H    -3.145000000     6.236000000     1.853000000
H    -2.860000000     4.981000000     2.650000000
O     3.179000000     4.088000000     1.474000000
H     3.495000000     3.303000000     1.026000000
H     3.199000000     4.771000000     0.804000000
O     3.015000000     3.849000000    -5.111000000
H     2.380000000     3.958000000    -5.819000000
H     3.433000000     3.007000000    -5.293000000
O    -4.536000000     1.916000000    -2.804000000
H    -4.221000000     1.403000000    -3.548000000
H    -5.474000000     1.728000000    -2.763000000
O     3.581000000    -0.021000000     3.513000000
H     4.260000000     0.597000000     3.242000000
H     2.884000000     0.530000000     3.869000000
O    -2.915000000     2.731000000     2.813000000
H    -2.171000000     2.315000000     3.250000000
H    -3.203000000     2.086000000     2.167000000
O     0.909000000    -1.505000000     4.553000000
H     1.733000000    -1.036000000     4.680000000
H     1.015000000    -1.953000000     3.714000000
O    -2.766000000    -4.759000000     4.110000000
H    -3.189000000    -4.418000000     4.899000000
H    -1.834000000    -4.782000000     4.329000000
O    -1.969000000    -1.932000000    -4.775000000
H    -1.809000000    -2.674000000    -4.192000000
H    -1.458000000    -2.129000000    -5.560000000
O     2.476000000    -5.637000000     0.525000000
H     1.820000000    -4.944000000     0.446000000
H     3.269000000    -5.185000000     0.814000000
O     4.165000000    -1.246000000     5.900000000
H     4.093000000    -0.841000000     5.036000000
H     3.861000000    -2.144000000     5.769000000
O    -0.021000000    -5.034000000     3.862000000
H    -0.037000000    -5.769000000     3.249000000
H     0.311000000    -4.299000000     3.346000000
O     3.235000000    -6.426000000    -2.077000000
H     2.942000000    -5.688000000    -2.611000000
H     2.946000000    -6.210000000    -1.190000000
O     0.007000000    -7.005000000     1.864000000
H     0.863000000    -6.854000000     1.464000000
H    -0.452000000    -7.569000000     1.241000000
O     2.891000000    -5.487000000     4.096000000
H     1.982000000    -5.521000000     3.797000000
H     3.250000000    -6.345000000     3.869000000
O     1.725000000     1.295000000     4.769000000
H     1.837000000     2.151000000     5.184000000
H     0.778000000     1.158000000     4.755000000
O     3.547000000    -2.861000000    -0.972000000
H     3.102000000    -2.172000000    -1.465000000
H     3.287000000    -2.711000000    -0.063000000
O    -0.290000000     5.663000000     0.715000000
H     0.425000000     5.564000000     1.343000000
H    -1.083000000     5.654000000     1.251000000
O     0.863000000     5.492000000    -3.758000000
H     1.508000000     4.846000000    -4.049000000
H     1.017000000     5.576000000    -2.817000000
O     3.254000000    -4.574000000     6.544000000
H     3.399000000    -4.971000000     5.685000000
H     2.301000000    -4.555000000     6.641000000
O     5.588000000     1.656000000     3.079000000
H     5.573000000     2.526000000     2.679000000
H     6.419000000     1.626000000     3.554000000
O    -3.654000000     4.588000000    -1.518000000
H    -4.339000000     4.634000000    -2.184000000
H    -3.081000000     3.880000000    -1.811000000
O     2.194000000    -0.683000000    -1.613000000
H     2.205000000     0.092000000    -2.175000000
H     1.540000000    -0.483000000    -0.943000000
O     0.974000000    -2.034000000    -4.050000000
H     1.363000000    -2.849000000    -3.734000000
H     0.701000000    -1.574000000    -3.256000000
O     3.551000000    -2.526000000     1.777000000
H     2.600000000    -2.635000000     1.782000000
H     3.687000000    -1.607000000     2.007000000
O     0.362000000    -4.706000000     6.529000000
H     0.409000000    -4.940000000     5.602000000
H    -0.014000000    -3.826000000     6.536000000
O     2.326000000     1.324000000    -3.827000000
H     1.744000000     2.071000000    -3.969000000
H     3.025000000     1.439000000    -4.471000000
O     3.213000000     5.973000000    -0.400000000
H     3.904000000     6.606000000    -0.210000000
H     3.258000000     5.845000000    -1.348000000
O     1.204000000    -4.277000000    -2.155000000
H     0.806000000    -4.139000000    -1.296000000
H     2.026000000    -3.786000000    -2.120000000
O     0.591000000    -5.780000000    -4.626000000
H     1.434000000    -5.429000000    -4.912000000
H     0.566000000    -5.607000000    -3.685000000
O     3.778000000     5.663000000    -3.148000000
H     3.536000000     5.237000000    -3.970000000
H     4.054000000     6.543000000    -3.407000000
O    -2.923000000    -0.047000000     1.239000000
H    -3.195000000    -0.952000000     1.393000000
H    -1.986000000    -0.107000000     1.053000000
O    -5.887000000     4.301000000     0.476000000
H    -6.179000000     4.931000000    -0.183000000
H    -4.982000000     4.104000000     0.234000000
O    -1.141000000     1.689000000     5.286000000
H    -2.062000000     1.498000000     5.465000000
H    -0.992000000     2.547000000     5.683000000
O     0.142000000     7.847000000    -0.994000000
H    -0.640000000     7.931000000    -1.539000000
H    -0.025000000     7.075000000    -0.453000000
O    -2.999000000    -2.774000000     1.774000000
H    -3.816000000    -3.203000000     1.521000000
H    -2.718000000    -3.239000000     2.562000000
O    -1.708000000    -4.994000000    -0.544000000
H    -2.440000000    -4.438000000    -0.280000000
H    -0.964000000    -4.668000000    -0.039000000
O    -1.081000000    -7.679000000    -0.949000000
H    -0.956000000    -6.735000000    -0.850000000
H    -1.107000000    -7.819000000    -1.895000000
O    -4.553000000    -2.191000000    -4.883000000
H    -4.867000000    -1.329000000    -4.610000000
H    -3.604000000    -2.087000000    -4.961000000
O    -2.541000000     0.780000000    -4.925000000
H    -2.068000000    -0.052000000    -4.958000000
H    -1.891000000     1.413000000    -4.621000000
O    -1.822000000    -4.377000000    -3.326000000
H    -1.460000000    -4.585000000    -2.465000000
H    -2.732000000    -4.671000000    -3.280000000
