161
-3036.17143
C     0.872000000    -0.750000000     1.021000000
H     1.454000000    -1.185000000     1.829000000
C     0.350000000     0.559000000     1.186000000
H     0.463000000     1.097000000     2.123000000
C    -0.466000000     1.085000000     0.208000000
C    -1.049000000     2.465000000     0.308000000
H    -0.360000000     3.236000000    -0.041000000
H    -1.855000000     2.444000000    -0.430000000
H    -1.482000000     2.851000000     1.233000000
C    -0.855000000     0.331000000    -0.886000000
H    -1.604000000     0.682000000    -1.591000000
C    -0.240000000    -0.889000000    -1.167000000
H    -0.478000000    -1.398000000    -2.098000000
C     0.661000000    -1.428000000    -0.180000000
C     1.343000000    -2.693000000    -0.448000000
O     0.988000000    -3.371000000    -1.370000000
O     2.264000000    -3.040000000     0.298000000
O    -2.485000000    -2.576000000     0.771000000
H    -1.607000000    -2.370000000     0.451000000
H    -2.381000000    -3.401000000     1.244000000
O    -0.860000000     0.554000000    -5.354000000
H    -0.499000000     0.198000000    -6.167000000
H    -1.611000000    -0.005000000    -5.160000000
O     0.183000000     2.416000000    -3.238000000
H     0.605000000     1.800000000    -2.639000000
H    -0.097000000     1.876000000    -3.978000000
O     6.215000000    -3.996000000    -2.516000000
H     5.403000000    -4.332000000    -2.136000000
H     6.908000000    -4.373000000    -1.974000000
O    -1.603000000    -4.104000000    -2.420000000
H    -1.572000000    -4.871000000    -2.992000000
H    -0.797000000    -3.627000000    -2.617000000
O     1.173000000     5.625000000     0.505000000
H     1.016000000     5.655000000    -0.439000000
H     2.122000000     5.531000000     0.587000000
O     1.990000000    -7.123000000     3.747000000
H     2.543000000    -6.550000000     4.278000000
H     1.805000000    -6.614000000     2.958000000
O    -2.271000000     6.926000000     0.156000000
H    -2.295000000     7.549000000    -0.570000000
H    -1.339000000     6.777000000     0.314000000
O    -1.202000000     6.829000000     4.071000000
H    -1.489000000     5.997000000     4.448000000
H    -1.237000000     7.447000000     4.802000000
O    -3.788000000    -2.387000000    -1.884000000
H    -3.059000000    -3.004000000    -1.946000000
H    -3.757000000    -2.070000000    -0.982000000
O     5.099000000    -1.226000000    -2.342000000
H     5.015000000    -1.996000000    -2.905000000
H     5.129000000    -1.581000000    -1.454000000
O    -2.096000000    -4.998000000     2.239000000
H    -1.798000000    -5.488000000     1.473000000
H    -1.335000000    -4.972000000     2.819000000
O    -4.673000000     5.812000000     1.559000000
H    -3.866000000     6.240000000     1.270000000
H    -4.481000000     4.876000000     1.503000000
O     1.873000000    -0.237000000     4.145000000
H     2.698000000    -0.661000000     3.909000000
H     2.029000000     0.694000000     3.988000000
O    -4.380000000    -0.556000000     0.302000000
H    -3.520000000    -0.951000000     0.443000000
H    -4.307000000    -0.121000000    -0.547000000
O     2.292000000     2.658000000     5.556000000
H     1.345000000     2.703000000     5.420000000
H     2.403000000     2.757000000     6.502000000
O     0.307000000    -4.583000000     3.213000000
H     1.175000000    -4.676000000     2.819000000
H     0.235000000    -3.650000000     3.415000000
O    -4.348000000     1.199000000    -1.928000000
H    -3.687000000     1.748000000    -2.350000000
H    -5.133000000     1.316000000    -2.463000000
O    -0.589000000     2.609000000     6.436000000
H    -0.615000000     3.566000000     6.411000000
H    -1.378000000     2.361000000     6.918000000
O    -3.326000000    -0.619000000    -4.664000000
H    -4.040000000    -0.637000000    -5.301000000
H    -3.710000000    -0.976000000    -3.863000000
O    -0.293000000    -2.042000000     3.746000000
H    -0.836000000    -1.876000000     4.517000000
H     0.300000000    -1.292000000     3.705000000
O    -6.316000000    -1.463000000    -2.123000000
H    -6.839000000    -2.131000000    -2.566000000
H    -5.438000000    -1.840000000    -2.073000000
O     2.214000000    -3.597000000     5.065000000
H     2.645000000    -2.976000000     4.478000000
H     2.923000000    -4.157000000     5.383000000
O    -1.766000000     3.840000000     3.837000000
H    -2.037000000     3.988000000     4.743000000
H    -2.536000000     3.459000000     3.416000000
O     4.198000000     1.776000000     4.178000000
H     3.645000000     2.061000000     4.905000000
H     4.254000000     2.540000000     3.605000000
O     3.984000000     1.109000000     1.453000000
H     4.394000000     1.950000000     1.249000000
H     4.103000000     1.007000000     2.397000000
O     4.544000000    -1.885000000     0.610000000
H     4.282000000    -0.992000000     0.834000000
H     3.718000000    -2.352000000     0.482000000
O     1.602000000     4.625000000    -1.911000000
H     2.470000000     4.353000000    -2.207000000
H     1.020000000     3.918000000    -2.191000000
O    -5.431000000     2.850000000     0.096000000
H    -5.038000000     2.365000000     0.821000000
H    -4.997000000     2.507000000    -0.685000000
O     2.426000000     1.464000000    -1.215000000
H     3.074000000     1.493000000    -0.511000000
H     1.656000000     1.059000000    -0.816000000
O    -3.270000000     3.352000000    -3.397000000
H    -2.354000000     3.540000000    -3.603000000
H    -3.640000000     3.034000000    -4.221000000
O    -0.874000000    -6.296000000    -3.799000000
H    -0.698000000    -6.194000000    -4.734000000
H    -1.642000000    -6.867000000    -3.761000000
O     3.988000000     2.916000000    -2.970000000
H     3.388000000     2.385000000    -2.447000000
H     4.831000000     2.469000000    -2.896000000
O     2.303000000    -5.476000000     1.630000000
H     2.220000000    -4.748000000     1.013000000
H     3.023000000    -6.003000000     1.283000000
O     4.569000000     3.942000000     2.410000000
H     5.281000000     4.564000000     2.261000000
H     3.773000000     4.469000000     2.342000000
O     2.934000000    -2.414000000    -3.786000000
H     2.247000000    -2.965000000    -4.160000000
H     2.796000000    -2.467000000    -2.840000000
O    -2.068000000     1.128000000     4.288000000
H    -1.497000000     1.879000000     4.445000000
H    -1.524000000     0.367000000     4.490000000
O     7.236000000    -1.459000000     1.659000000
H     7.772000000    -2.227000000     1.858000000
H     6.358000000    -1.811000000     1.512000000
O     1.808000000    -6.430000000    -2.979000000
H     0.907000000    -6.109000000    -2.984000000
H     1.805000000    -7.143000000    -2.341000000
O     5.780000000    -3.768000000     3.284000000
H     5.731000000    -4.453000000     2.616000000
H     6.575000000    -3.972000000     3.777000000
O     3.605000000    -4.625000000    -1.730000000
H     2.928000000    -5.107000000    -2.205000000
H     3.122000000    -4.105000000    -1.087000000
O     5.722000000    -5.589000000     1.222000000
H     6.266000000    -5.151000000     0.567000000
H     5.441000000    -6.399000000     0.796000000
O    -3.937000000     2.566000000     2.903000000
H    -3.178000000     1.986000000     2.850000000
H    -4.676000000     1.979000000     3.064000000
O     3.974000000    -1.853000000     3.811000000
H     4.428000000    -2.583000000     3.391000000
H     4.532000000    -1.618000000     4.553000000
O     0.904000000     4.135000000     2.976000000
H     0.919000000     4.770000000     2.260000000
H    -0.017000000     4.082000000     3.230000000
O    -0.291000000    -3.408000000    -6.255000000
H     0.509000000    -2.977000000    -6.555000000
H    -0.975000000    -3.076000000    -6.837000000
O    -4.937000000     5.210000000    -2.289000000
H    -4.328000000     4.511000000    -2.526000000
H    -5.483000000     4.829000000    -1.601000000
O    -0.392000000    -5.766000000    -0.380000000
H    -0.871000000    -5.396000000    -1.121000000
H     0.377000000    -5.204000000    -0.287000000
