161
-3054.32378
C     1.103000000    -0.376000000     0.883000000
H     1.876000000    -0.668000000     1.590000000
C     0.107000000     0.446000000     1.239000000
H     0.036000000     0.825000000     2.255000000
C    -0.880000000     0.783000000     0.269000000
C    -2.120000000     1.591000000     0.717000000
H    -2.342000000     2.360000000    -0.025000000
H    -3.036000000     0.996000000     0.713000000
H    -2.042000000     2.140000000     1.658000000
C    -0.813000000     0.247000000    -0.994000000
H    -1.478000000     0.467000000    -1.826000000
C     0.189000000    -0.653000000    -1.355000000
H     0.282000000    -1.101000000    -2.341000000
C     1.183000000    -0.897000000    -0.390000000
C     2.287000000    -1.840000000    -0.705000000
O     2.324000000    -2.511000000    -1.716000000
O     3.329000000    -1.808000000     0.024000000
O    -1.947000000    -2.000000000     2.421000000
H    -2.901000000    -2.066000000     2.463000000
H    -1.775000000    -1.528000000     1.606000000
O    -1.236000000     0.505000000    -4.342000000
H    -0.302000000     0.329000000    -4.456000000
H    -1.421000000     1.220000000    -4.951000000
O    -4.346000000     1.836000000    -3.716000000
H    -4.068000000     0.971000000    -4.019000000
H    -4.604000000     2.298000000    -4.514000000
O    -2.111000000    -5.984000000    -3.065000000
H    -1.888000000    -5.122000000    -2.713000000
H    -1.563000000    -6.593000000    -2.570000000
O     5.678000000    -0.025000000    -2.695000000
H     6.362000000    -0.684000000    -2.814000000
H     6.083000000     0.795000000    -2.979000000
O     1.559000000     1.150000000    -5.222000000
H     1.819000000     0.608000000    -5.967000000
H     1.740000000     2.047000000    -5.503000000
O     1.328000000    -5.070000000    -4.476000000
H     1.760000000    -4.349000000    -4.935000000
H     0.937000000    -4.661000000    -3.704000000
O     3.567000000    -1.846000000    -3.962000000
H     3.270000000    -1.926000000    -3.055000000
H     4.362000000    -1.316000000    -3.907000000
O    -0.473000000     4.825000000     2.492000000
H    -0.382000000     4.751000000     1.542000000
H    -1.177000000     5.460000000     2.617000000
O     1.958000000    -1.572000000     4.249000000
H     1.592000000    -0.743000000     4.557000000
H     2.280000000    -2.002000000     5.041000000
O    -1.427000000     2.649000000    -5.936000000
H    -2.211000000     3.172000000    -6.106000000
H    -0.917000000     3.175000000    -5.320000000
O    -4.472000000    -3.270000000    -2.520000000
H    -4.001000000    -3.864000000    -1.936000000
H    -3.815000000    -2.993000000    -3.159000000
O     4.361000000    -5.025000000    -3.161000000
H     4.839000000    -4.961000000    -3.989000000
H     3.458000000    -4.803000000    -3.389000000
O    -0.507000000    -6.578000000    -0.385000000
H    -0.849000000    -6.992000000     0.408000000
H     0.412000000    -6.400000000    -0.185000000
O     1.979000000    -5.464000000     0.082000000
H     2.026000000    -5.121000000     0.975000000
H     2.891000000    -5.526000000    -0.199000000
O    -2.119000000    -2.944000000    -1.275000000
H    -1.268000000    -3.292000000    -1.541000000
H    -2.192000000    -2.110000000    -1.738000000
O     2.263000000     2.238000000     2.628000000
H     3.091000000     1.767000000     2.729000000
H     1.675000000     1.828000000     3.261000000
O     2.565000000    -3.070000000    -6.102000000
H     2.942000000    -2.609000000    -5.352000000
H     3.177000000    -2.902000000    -6.818000000
O    -1.241000000     4.394000000    -3.684000000
H    -0.833000000     5.186000000    -4.033000000
H    -0.680000000     4.139000000    -2.951000000
O    -5.580000000     3.169000000     1.617000000
H    -4.664000000     3.441000000     1.564000000
H    -5.813000000     2.936000000     0.718000000
O    -1.423000000    -0.369000000     4.547000000
H    -1.298000000    -0.791000000     3.697000000
H    -0.542000000    -0.113000000     4.818000000
O    -3.541000000     4.079000000    -2.092000000
H    -3.843000000     3.371000000    -2.661000000
H    -2.794000000     4.457000000    -2.555000000
O    -2.233000000    -2.070000000    -3.964000000
H    -2.166000000    -2.515000000    -4.809000000
H    -1.898000000    -1.189000000    -4.129000000
O     0.828000000     0.687000000     5.221000000
H     1.594000000     0.505000000     5.764000000
H     0.498000000     1.526000000     5.543000000
O    -6.241000000     2.204000000    -0.952000000
H    -6.751000000     2.317000000    -1.754000000
H    -5.344000000     2.062000000    -1.256000000
O    -0.148000000     3.060000000     5.701000000
H     0.325000000     3.802000000     5.324000000
H    -0.462000000     3.381000000     6.547000000
O     5.106000000     0.023000000     0.118000000
H     5.217000000    -0.401000000    -0.733000000
H     4.555000000    -0.580000000     0.616000000
O    -0.826000000     5.098000000    -0.063000000
H    -0.621000000     5.925000000    -0.499000000
H    -0.571000000     4.425000000    -0.694000000
O     2.193000000     2.897000000     0.021000000
H     1.995000000     2.590000000     0.906000000
H     2.714000000     2.193000000    -0.365000000
O    -3.640000000     5.445000000     0.855000000
H    -3.238000000     5.736000000     1.673000000
H    -2.919000000     5.056000000     0.359000000
O    -0.102000000    -1.759000000    -6.687000000
H    -0.069000000    -2.527000000    -7.258000000
H     0.656000000    -1.857000000    -6.111000000
O     5.229000000     3.225000000     0.035000000
H     4.281000000     3.332000000    -0.039000000
H     5.389000000     2.317000000    -0.222000000
O     3.927000000    -2.338000000     2.643000000
H     3.780000000    -2.246000000     1.702000000
H     3.107000000    -2.049000000     3.043000000
O    -4.552000000    -1.000000000     2.045000000
H    -4.934000000    -1.345000000     1.238000000
H    -5.246000000    -0.462000000     2.427000000
O    -2.997000000     3.271000000     4.017000000
H    -2.225000000     2.791000000     3.720000000
H    -2.951000000     4.109000000     3.556000000
O     0.297000000    -4.227000000    -2.133000000
H     1.068000000    -3.744000000    -1.838000000
H     0.163000000    -4.897000000    -1.462000000
O     4.783000000    -2.802000000     5.178000000
H     4.592000000    -2.578000000     4.268000000
H     5.334000000    -2.084000000     5.491000000
O     7.394000000     0.277000000     1.579000000
H     7.293000000    -0.291000000     2.343000000
H     6.514000000     0.337000000     1.208000000
O     5.234000000    -5.087000000     2.266000000
H     5.226000000    -4.210000000     2.649000000
H     5.021000000    -4.948000000     1.343000000
O     4.717000000    -4.299000000    -0.489000000
H     4.786000000    -4.427000000    -1.436000000
H     4.108000000    -3.568000000    -0.390000000
O    -6.524000000     1.306000000     3.427000000
H    -6.081000000     1.800000000     2.737000000
H    -6.098000000     1.589000000     4.236000000
O     4.191000000     0.747000000     4.259000000
H     5.104000000     0.479000000     4.155000000
H     3.898000000     0.298000000     5.052000000
O     0.266000000     3.046000000    -1.895000000
H     0.046000000     2.121000000    -2.008000000
H     0.932000000     3.052000000    -1.208000000
O    -3.025000000     1.360000000     6.503000000
H    -2.885000000     1.255000000     5.562000000
H    -2.397000000     2.033000000     6.765000000
O    -6.570000000    -0.721000000    -0.253000000
H    -6.217000000    -1.070000000    -1.071000000
H    -6.768000000     0.195000000    -0.449000000
O     7.567000000    -3.359000000     0.281000000
H     6.625000000    -3.344000000     0.112000000
H     7.924000000    -3.919000000    -0.408000000
O     2.019000000    -4.618000000     2.552000000
H     2.503000000    -4.787000000     3.360000000
H     1.115000000    -4.485000000     2.838000000
O     3.339000000     1.524000000    -1.972000000
H     2.853000000     1.276000000    -2.759000000
H     4.232000000     1.223000000    -2.137000000
