161
-3029.62070
C     1.458000000    -0.163000000    -0.138000000
H     2.530000000    -0.212000000    -0.313000000
C     0.781000000     1.046000000    -0.263000000
H     1.333000000     1.923000000    -0.593000000
C    -0.596000000     1.114000000    -0.066000000
C    -1.327000000     2.400000000    -0.097000000
H    -0.732000000     3.117000000    -0.667000000
H    -2.312000000     2.354000000    -0.566000000
H    -1.536000000     2.768000000     0.909000000
C    -1.278000000    -0.081000000     0.079000000
H    -2.355000000    -0.068000000     0.223000000
C    -0.572000000    -1.302000000     0.216000000
H    -1.080000000    -2.259000000     0.303000000
C     0.810000000    -1.360000000     0.155000000
C     1.476000000    -2.734000000     0.214000000
O     0.760000000    -3.691000000     0.480000000
O     2.644000000    -2.856000000     0.116000000
O    -1.554000000    -4.501000000    -0.825000000
H    -0.742000000    -4.389000000    -0.330000000
H    -1.341000000    -5.156000000    -1.490000000
O    -1.704000000    -2.175000000    -4.965000000
H    -0.778000000    -2.366000000    -4.816000000
H    -2.037000000    -1.920000000    -4.104000000
O     2.751000000    -2.107000000     3.809000000
H     3.326000000    -1.373000000     3.596000000
H     3.147000000    -2.858000000     3.367000000
O    -0.732000000    -6.683000000    -2.632000000
H    -0.018000000    -6.699000000    -3.269000000
H    -0.426000000    -7.238000000    -1.915000000
O     6.091000000    -5.666000000     0.780000000
H     6.880000000    -6.012000000     1.195000000
H     6.233000000    -5.803000000    -0.157000000
O     0.745000000    -5.961000000     1.981000000
H     1.650000000    -5.854000000     2.273000000
H     0.526000000    -5.125000000     1.570000000
O     1.692000000    -2.507000000    -4.952000000
H     2.516000000    -2.726000000    -5.387000000
H     1.949000000    -1.939000000    -4.225000000
O    -5.316000000     1.571000000    -0.571000000
H    -4.972000000     2.291000000    -0.042000000
H    -6.247000000     1.534000000    -0.348000000
O    -1.515000000     6.884000000    -2.031000000
H    -1.598000000     7.217000000    -2.925000000
H    -1.927000000     6.021000000    -2.058000000
O     0.863000000     0.755000000    -5.691000000
H     0.122000000     1.094000000    -6.192000000
H     0.478000000     0.453000000    -4.868000000
O    -4.793000000     3.320000000     1.226000000
H    -4.025000000     3.062000000     1.736000000
H    -5.418000000     3.636000000     1.878000000
O    -0.634000000     4.722000000    -4.851000000
H    -1.583000000     4.598000000    -4.870000000
H    -0.281000000     3.847000000    -4.689000000
O     3.310000000    -6.064000000     3.323000000
H     4.130000000    -6.422000000     3.662000000
H     3.580000000    -5.457000000     2.634000000
O     4.714000000    -1.848000000    -0.855000000
H     5.120000000    -2.520000000    -1.403000000
H     3.939000000    -2.274000000    -0.489000000
O    -2.563000000    -3.338000000     2.511000000
H    -1.625000000    -3.183000000     2.621000000
H    -2.762000000    -2.998000000     1.639000000
O     1.113000000    -5.490000000     5.290000000
H     1.754000000    -5.541000000     4.581000000
H     1.277000000    -4.642000000     5.701000000
O    -2.648000000     3.098000000     4.432000000
H    -2.032000000     3.828000000     4.494000000
H    -2.114000000     2.359000000     4.141000000
O     0.030000000    -0.077000000    -3.056000000
H    -0.717000000    -0.391000000    -2.547000000
H     0.791000000    -0.261000000    -2.505000000
O    -0.889000000     2.375000000    -3.272000000
H    -0.450000000     1.587000000    -2.952000000
H    -1.504000000     2.605000000    -2.575000000
O    -2.537000000    -2.042000000    -2.326000000
H    -3.083000000    -1.652000000    -1.643000000
H    -2.098000000    -2.774000000    -1.893000000
O     5.245000000     0.657000000    -0.066000000
H     6.034000000     1.056000000    -0.434000000
H     5.326000000    -0.272000000    -0.280000000
O    -5.729000000    -0.305000000    -2.669000000
H    -5.247000000     0.185000000    -2.003000000
H    -6.615000000    -0.383000000    -2.315000000
O    -1.091000000     5.193000000     4.811000000
H    -1.680000000     5.686000000     4.239000000
H    -0.459000000     5.842000000     5.120000000
O     4.032000000     1.288000000    -4.377000000
H     3.565000000     2.117000000    -4.479000000
H     4.903000000     1.459000000    -4.736000000
O     5.118000000    -3.199000000    -3.565000000
H     5.173000000    -2.345000000    -3.995000000
H     4.677000000    -3.760000000    -4.202000000
O     1.869000000     5.350000000     2.554000000
H     2.300000000     5.868000000     1.874000000
H     0.969000000     5.249000000     2.244000000
O     6.507000000    -2.773000000     3.527000000
H     5.590000000    -2.902000000     3.287000000
H     6.738000000    -3.557000000     4.024000000
O     6.119000000     2.500000000     2.409000000
H     5.467000000     2.097000000     1.835000000
H     5.618000000     2.794000000     3.170000000
O    -5.016000000    -2.910000000     3.488000000
H    -4.994000000    -3.101000000     4.425000000
H    -4.238000000    -3.343000000     3.137000000
O    -4.530000000    -5.153000000     0.665000000
H    -5.051000000    -4.490000000     0.212000000
H    -3.627000000    -4.849000000     0.578000000
O    -0.816000000    -7.204000000     3.737000000
H    -1.197000000    -6.383000000     4.047000000
H    -0.408000000    -6.978000000     2.901000000
O    -1.902000000     0.616000000     3.415000000
H    -2.529000000     0.303000000     2.763000000
H    -1.046000000     0.479000000     3.010000000
O    -5.625000000     3.592000000    -3.008000000
H    -5.550000000     2.983000000    -3.743000000
H    -5.362000000     3.079000000    -2.244000000
O     0.905000000     6.524000000    -0.645000000
H     0.216000000     6.792000000    -1.252000000
H     0.436000000     6.144000000     0.098000000
O    -4.134000000    -0.424000000     2.378000000
H    -4.963000000     0.050000000     2.315000000
H    -4.336000000    -1.189000000     2.917000000
O    -3.124000000     5.025000000    -3.385000000
H    -3.747000000     5.541000000    -2.874000000
H    -3.636000000     4.690000000    -4.121000000
O     3.166000000    -7.982000000     0.146000000
H     2.892000000    -7.150000000    -0.241000000
H     2.569000000    -8.113000000     0.882000000
O     4.506000000     3.947000000    -2.246000000
H     5.309000000     3.970000000    -1.725000000
H     4.122000000     3.091000000    -2.056000000
O     0.222000000    -2.763000000     3.028000000
H     0.491000000    -2.953000000     2.130000000
H     1.019000000    -2.449000000     3.455000000
O    -4.349000000    -1.710000000     0.009000000
H    -5.141000000    -2.213000000    -0.180000000
H    -4.592000000    -1.151000000     0.747000000
O    -0.721000000     5.962000000     1.602000000
H    -1.622000000     5.851000000     1.300000000
H    -0.759000000     6.707000000     2.202000000
O     2.904000000    -0.706000000    -2.998000000
H     3.334000000    -0.015000000    -3.501000000
H     3.538000000    -0.938000000    -2.319000000
O     3.989000000     0.140000000     3.222000000
H     3.568000000     0.976000000     3.424000000
H     4.307000000     0.243000000     2.325000000
O     4.264000000    -3.826000000     2.009000000
H     3.805000000    -3.382000000     1.296000000
H     4.884000000    -4.408000000     1.570000000
O     2.206000000    -5.646000000    -0.871000000
H     2.544000000    -4.758000000    -0.993000000
H     1.348000000    -5.521000000    -0.466000000
O     6.090000000    -5.627000000    -2.020000000
H     5.520000000    -4.901000000    -2.274000000
H     6.690000000    -5.730000000    -2.758000000
O    -1.147000000    -2.280000000     5.469000000
H    -0.881000000    -2.372000000     4.554000000
H    -0.348000000    -2.443000000     5.969000000
O    -3.316000000     5.622000000     0.562000000
H    -3.863000000     4.884000000     0.292000000
H    -3.940000000     6.315000000     0.779000000
