161
-3061.50577
C     1.309000000    -0.556000000    -0.110000000
H     2.364000000    -0.812000000    -0.058000000
C     0.975000000     0.815000000     0.037000000
H     1.757000000     1.570000000     0.039000000
C    -0.340000000     1.189000000     0.185000000
C    -0.664000000     2.657000000     0.322000000
H     0.223000000     3.277000000     0.175000000
H    -1.459000000     2.970000000    -0.358000000
H    -0.945000000     2.702000000     1.377000000
C    -1.331000000     0.203000000    -0.042000000
H    -2.390000000     0.441000000     0.011000000
C    -0.937000000    -1.173000000    -0.224000000
H    -1.738000000    -1.908000000    -0.222000000
C     0.357000000    -1.530000000    -0.219000000
C     0.813000000    -2.911000000    -0.272000000
O    -0.040000000    -3.802000000    -0.368000000
O     2.039000000    -3.124000000    -0.279000000
O     0.258000000    -6.501000000     0.015000000
H     0.253000000    -5.544000000     0.004000000
H     1.102000000    -6.741000000    -0.367000000
O    -5.660000000    -0.065000000    -1.088000000
H    -5.853000000    -0.614000000    -1.848000000
H    -4.770000000     0.251000000    -1.241000000
O    -1.231000000     2.503000000     3.896000000
H    -0.289000000     2.608000000     4.029000000
H    -1.467000000     3.203000000     3.287000000
O    -0.163000000    -2.759000000    -5.100000000
H     0.543000000    -3.245000000    -4.674000000
H    -0.666000000    -2.383000000    -4.378000000
O     4.450000000    -1.351000000     3.414000000
H     4.144000000    -0.447000000     3.343000000
H     4.748000000    -1.573000000     2.532000000
O    -1.754000000     7.248000000     1.115000000
H    -1.892000000     8.121000000     0.749000000
H    -0.870000000     7.278000000     1.480000000
O    -2.276000000    -7.409000000     2.232000000
H    -1.592000000    -6.765000000     2.414000000
H    -1.847000000    -8.256000000     2.358000000
O     3.502000000    -0.947000000    -3.674000000
H     3.448000000    -1.659000000    -3.037000000
H     3.312000000    -1.362000000    -4.515000000
O    -2.221000000    -3.710000000    -1.734000000
H    -2.736000000    -3.645000000    -0.929000000
H    -1.311000000    -3.712000000    -1.436000000
O    -3.778000000     1.526000000     1.757000000
H    -4.448000000     1.800000000     2.383000000
H    -3.636000000     0.599000000     1.948000000
O     2.789000000     4.649000000    -1.895000000
H     2.526000000     3.808000000    -2.270000000
H     2.084000000     5.250000000    -2.137000000
O     2.025000000    -7.528000000    -2.841000000
H     2.479000000    -8.283000000    -2.466000000
H     2.285000000    -6.793000000    -2.284000000
O     0.837000000     5.603000000     2.575000000
H     0.085000000     5.096000000     2.880000000
H     1.497000000     5.487000000     3.259000000
O     4.335000000    -6.260000000     1.898000000
H     4.251000000    -5.563000000     2.549000000
H     4.943000000    -5.909000000     1.248000000
O    -3.078000000     6.501000000    -3.811000000
H    -2.836000000     7.423000000    -3.892000000
H    -2.638000000     6.206000000    -3.014000000
O     6.220000000    -2.821000000    -1.566000000
H     7.140000000    -3.007000000    -1.751000000
H     5.747000000    -3.177000000    -2.318000000
O    -4.190000000    -3.758000000     0.403000000
H    -3.921000000    -3.649000000     1.315000000
H    -5.132000000    -3.593000000     0.409000000
O    -4.487000000     2.571000000     4.182000000
H    -3.584000000     2.512000000     3.869000000
H    -4.659000000     1.718000000     4.581000000
O     1.422000000     3.080000000     4.174000000
H     1.679000000     2.363000000     3.594000000
H     1.867000000     2.889000000     5.000000000
O    -0.327000000    -6.069000000    -3.401000000
H    -0.388000000    -5.806000000    -2.483000000
H     0.528000000    -6.493000000    -3.473000000
O    -0.951000000    -4.226000000     2.009000000
H    -0.120000000    -4.094000000     2.465000000
H    -0.721000000    -4.200000000     1.080000000
O     6.680000000     2.649000000    -0.196000000
H     6.043000000     2.034000000     0.167000000
H     6.252000000     3.007000000    -0.974000000
O     2.090000000     2.187000000    -2.968000000
H     2.737000000     1.799000000    -3.557000000
H     1.465000000     1.482000000    -2.802000000
O     0.274000000     3.694000000    -4.587000000
H     0.625000000     2.939000000    -4.114000000
H     0.911000000     4.391000000    -4.432000000
O    -2.103000000    -1.523000000    -3.426000000
H    -2.855000000    -1.398000000    -4.004000000
H    -2.319000000    -2.305000000    -2.918000000
O     5.308000000     0.006000000    -1.308000000
H     5.159000000     0.226000000    -2.228000000
H     5.767000000    -0.834000000    -1.334000000
O    -4.665000000    -3.516000000    -2.914000000
H    -4.873000000    -4.381000000    -3.267000000
H    -3.836000000    -3.639000000    -2.451000000
O    -2.080000000     4.924000000     2.800000000
H    -2.499000000     5.192000000     3.617000000
H    -2.098000000     5.709000000     2.252000000
O     0.506000000     6.198000000    -2.393000000
H    -0.228000000     6.118000000    -1.783000000
H     0.440000000     7.091000000    -2.730000000
O     5.301000000     0.826000000     1.284000000
H     5.232000000     0.608000000     0.354000000
H     5.915000000     0.183000000     1.636000000
O    -3.108000000    -3.282000000     3.175000000
H    -3.208000000    -3.601000000     4.071000000
H    -2.214000000    -3.525000000     2.932000000
O    -1.428000000    -8.146000000    -0.857000000
H    -2.195000000    -7.591000000    -0.997000000
H    -0.757000000    -7.547000000    -0.528000000
O    -1.573000000    -0.657000000     3.878000000
H    -2.331000000    -1.035000000     3.432000000
H    -1.650000000     0.285000000     3.724000000
O    -0.622000000     0.784000000    -3.022000000
H    -0.445000000     0.633000000    -2.093000000
H    -1.114000000     0.012000000    -3.300000000
O     3.893000000    -4.001000000     3.683000000
H     2.981000000    -4.047000000     3.970000000
H     4.056000000    -3.067000000     3.551000000
O     5.328000000     3.704000000    -2.131000000
H     4.490000000     4.165000000    -2.116000000
H     5.179000000     2.955000000    -2.709000000
O    -4.396000000    -0.941000000     2.850000000
H    -4.501000000    -0.729000000     3.777000000
H    -4.088000000    -1.847000000     2.844000000
O    -3.464000000    -6.331000000    -0.374000000
H    -3.612000000    -5.408000000    -0.166000000
H    -3.548000000    -6.783000000     0.465000000
O    -2.502000000     2.646000000    -3.729000000
H    -1.968000000     3.406000000    -3.959000000
H    -1.871000000     1.935000000    -3.614000000
O     1.316000000    -1.140000000     3.192000000
H     0.484000000    -0.924000000     2.771000000
H     1.840000000    -1.539000000     2.497000000
O    -2.058000000     5.744000000    -1.247000000
H    -1.911000000     6.159000000    -0.397000000
H    -2.561000000     4.956000000    -1.045000000
O     2.318000000    -3.532000000    -3.030000000
H     3.018000000    -4.108000000    -2.721000000
H     1.815000000    -3.323000000    -2.242000000
O     3.571000000     1.438000000     3.186000000
H     3.928000000     1.355000000     2.302000000
H     4.047000000     2.175000000     3.568000000
O     4.398000000    -2.812000000     0.697000000
H     3.500000000    -2.920000000     0.382000000
H     4.943000000    -3.142000000    -0.017000000
O     2.751000000    -5.677000000    -1.253000000
H     3.598000000    -5.732000000    -0.811000000
H     2.299000000    -4.956000000    -0.815000000
O     3.250000000     4.848000000     0.829000000
H     3.180000000     4.642000000    -0.104000000
H     2.412000000     5.256000000     1.047000000
O    -4.038000000     3.832000000    -0.414000000
H    -3.780000000     3.446000000     0.423000000
H    -4.807000000     3.329000000    -0.683000000
O     5.476000000    -5.633000000    -0.602000000
H     6.200000000    -5.034000000    -0.786000000
H     5.589000000    -6.346000000    -1.230000000
