161
-3041.95617
C     1.371000000    -0.630000000    -0.153000000
H     2.415000000    -0.933000000    -0.171000000
C     1.041000000     0.728000000    -0.153000000
H     1.817000000     1.488000000    -0.200000000
C    -0.234000000     1.213000000    -0.104000000
C    -0.378000000     2.692000000     0.091000000
H     0.032000000     3.163000000    -0.805000000
H    -1.440000000     2.943000000     0.107000000
H     0.285000000     3.016000000     0.896000000
C    -1.284000000     0.320000000    -0.028000000
H    -2.315000000     0.642000000     0.099000000
C    -1.030000000    -1.049000000    -0.022000000
H    -1.898000000    -1.702000000    -0.059000000
C     0.283000000    -1.538000000    -0.079000000
C     0.413000000    -3.043000000     0.126000000
O    -0.545000000    -3.664000000     0.493000000
O     1.461000000    -3.646000000    -0.031000000
O    -2.403000000    -5.157000000    -0.823000000
H    -1.978000000    -6.015000000    -0.815000000
H    -1.817000000    -4.594000000    -0.318000000
O     2.035000000    -8.286000000    -2.660000000
H     1.564000000    -7.528000000    -2.313000000
H     1.715000000    -8.376000000    -3.558000000
O     4.127000000    -3.560000000    -0.224000000
H     4.328000000    -4.480000000    -0.395000000
H     3.174000000    -3.536000000    -0.136000000
O     0.118000000    -1.096000000    -3.048000000
H     0.499000000    -0.281000000    -3.376000000
H    -0.153000000    -0.891000000    -2.154000000
O    -5.501000000    -3.275000000    -3.186000000
H    -6.294000000    -3.793000000    -3.323000000
H    -5.110000000    -3.640000000    -2.392000000
O    -4.871000000    -3.192000000     2.949000000
H    -3.992000000    -3.387000000     2.623000000
H    -5.343000000    -2.865000000     2.183000000
O    -2.274000000     6.760000000    -3.374000000
H    -1.898000000     6.378000000    -4.167000000
H    -2.714000000     6.028000000    -2.941000000
O     2.896000000    -8.248000000     2.850000000
H     2.349000000    -7.640000000     2.353000000
H     2.365000000    -8.482000000     3.611000000
O    -0.237000000     3.893000000    -3.379000000
H     0.349000000     4.384000000    -3.954000000
H     0.122000000     3.006000000    -3.371000000
O     0.171000000     5.984000000     1.200000000
H    -0.099000000     5.956000000     0.282000000
H     1.127000000     6.017000000     1.168000000
O    -6.187000000     1.686000000     0.642000000
H    -5.498000000     2.255000000     0.986000000
H    -6.978000000     1.958000000     1.107000000
O    -3.809000000     2.469000000     1.413000000
H    -3.044000000     2.517000000     0.840000000
H    -3.741000000     3.244000000     1.970000000
O    -1.148000000    -7.542000000    -0.537000000
H    -0.320000000    -7.517000000    -1.016000000
H    -1.445000000    -8.448000000    -0.620000000
O     0.997000000    -6.079000000     1.536000000
H     0.207000000    -6.538000000     1.821000000
H     0.671000000    -5.336000000     1.028000000
O    -4.174000000    -6.052000000     1.650000000
H    -3.971000000    -5.311000000     1.078000000
H    -3.814000000    -5.802000000     2.502000000
O     4.374000000     2.449000000    -2.707000000
H     4.255000000     3.063000000    -1.982000000
H     4.623000000     1.627000000    -2.285000000
O     5.591000000    -1.403000000     0.505000000
H     5.062000000    -2.163000000     0.260000000
H     5.446000000    -1.305000000     1.446000000
O     3.852000000    -6.220000000    -0.476000000
H     2.915000000    -6.400000000    -0.397000000
H     3.955000000    -5.869000000    -1.361000000
O     5.349000000    -5.129000000     3.876000000
H     4.609000000    -4.851000000     3.336000000
H     5.000000000    -5.151000000     4.767000000
O    -4.576000000     4.941000000    -2.119000000
H    -5.516000000     4.759000000    -2.113000000
H    -4.419000000     5.409000000    -1.299000000
O     4.007000000     4.076000000    -0.421000000
H     3.844000000     4.987000000    -0.665000000
H     4.305000000     4.121000000     0.488000000
O    -6.364000000    -2.503000000     0.677000000
H    -6.478000000    -3.383000000     0.319000000
H    -5.813000000    -2.053000000     0.037000000
O    -2.378000000    -3.641000000     2.438000000
H    -1.762000000    -3.637000000     1.705000000
H    -1.951000000    -3.112000000     3.112000000
O     4.928000000    -0.300000000    -2.030000000
H     5.239000000    -0.754000000    -1.246000000
H     4.504000000    -0.982000000    -2.550000000
O    -2.907000000     3.079000000    -4.393000000
H    -2.786000000     2.644000000    -5.237000000
H    -2.045000000     3.439000000    -4.184000000
O    -2.048000000     4.724000000     2.135000000
H    -2.354000000     5.450000000     2.679000000
H    -1.136000000     4.939000000     1.939000000
O    -5.347000000    -5.429000000    -1.296000000
H    -4.398000000    -5.301000000    -1.299000000
H    -5.474000000    -6.266000000    -0.849000000
O     3.018000000    -4.566000000     2.465000000
H     2.320000000    -5.205000000     2.323000000
H     3.370000000    -4.399000000     1.590000000
O     0.991000000     1.477000000    -4.034000000
H     1.330000000     1.154000000    -4.869000000
H     1.759000000     1.825000000    -3.582000000
O    -2.115000000     0.637000000     4.750000000
H    -2.652000000     0.239000000     4.066000000
H    -2.725000000     1.183000000     5.246000000
O    -3.588000000    -0.060000000     2.694000000
H    -4.523000000     0.102000000     2.825000000
H    -3.388000000     0.357000000     1.856000000
O     2.261000000     6.709000000    -0.313000000
H     1.550000000     6.706000000    -0.953000000
H     3.051000000     6.857000000    -0.834000000
O    -1.847000000    -1.658000000    -4.716000000
H    -1.473000000    -1.850000000    -5.575000000
H    -1.099000000    -1.389000000    -4.183000000
O     1.143000000    -4.817000000     5.076000000
H     1.056000000    -4.244000000     4.314000000
H     1.066000000    -4.231000000     5.828000000
O     3.648000000    -5.021000000    -2.802000000
H     4.341000000    -5.504000000    -3.251000000
H     3.414000000    -4.318000000    -3.408000000
O     1.284000000    -5.744000000    -1.551000000
H     1.967000000    -5.480000000    -2.168000000
H     1.180000000    -4.989000000    -0.972000000
O    -0.013000000     8.657000000     0.991000000
H     0.857000000     9.038000000     0.873000000
H     0.133000000     7.711000000     0.951000000
O     4.574000000    -1.952000000    -4.329000000
H     4.756000000    -1.614000000    -5.206000000
H     3.795000000    -2.496000000    -4.439000000
O     2.109000000    -3.278000000    -4.287000000
H     1.420000000    -3.749000000    -4.755000000
H     1.639000000    -2.683000000    -3.703000000
O     2.725000000     4.152000000     4.798000000
H     2.173000000     3.510000000     5.245000000
H     2.360000000     4.999000000     5.053000000
O    -2.331000000    -4.408000000    -4.210000000
H    -2.234000000    -3.467000000    -4.358000000
H    -2.885000000    -4.472000000    -3.432000000
O    -3.983000000     6.704000000     0.265000000
H    -3.987000000     6.560000000     1.211000000
H    -3.884000000     7.651000000     0.167000000
O    -4.837000000     1.280000000    -2.913000000
H    -4.490000000     2.122000000    -3.205000000
H    -4.649000000     0.680000000    -3.635000000
O    -5.064000000    -0.434000000    -0.800000000
H    -5.323000000     0.275000000    -0.212000000
H    -5.109000000    -0.048000000    -1.675000000
O     4.460000000     4.066000000     2.423000000
H     4.844000000     4.458000000     3.207000000
H     3.517000000     4.075000000     2.589000000
O     1.564000000    -2.126000000     3.805000000
H     1.655000000    -1.356000000     3.245000000
H     1.866000000    -2.854000000     3.262000000
O    -0.307000000     5.853000000    -1.460000000
H    -1.145000000     6.179000000    -1.788000000
H    -0.166000000     5.034000000    -1.935000000
O    -1.426000000    -7.590000000     2.495000000
H    -1.638000000    -7.394000000     1.582000000
H    -2.033000000    -7.053000000     3.003000000
