161
-3067.74905
C     1.309000000    -0.449000000    -0.603000000
H     2.312000000    -0.615000000    -0.988000000
C     0.872000000     0.827000000    -0.370000000
H     1.539000000     1.604000000    -0.734000000
C    -0.338000000     1.184000000     0.152000000
C    -0.753000000     2.580000000     0.188000000
H    -0.088000000     3.273000000    -0.332000000
H    -1.750000000     2.554000000    -0.255000000
H    -0.890000000     2.914000000     1.219000000
C    -1.252000000     0.177000000     0.594000000
H    -2.135000000     0.480000000     1.150000000
C    -0.846000000    -1.155000000     0.344000000
H    -1.463000000    -2.017000000     0.585000000
C     0.472000000    -1.474000000    -0.177000000
C     0.868000000    -2.929000000    -0.254000000
O     0.135000000    -3.779000000     0.142000000
O     2.001000000    -3.182000000    -0.664000000
O    -1.956000000    -4.063000000    -1.531000000
H    -1.536000000    -4.762000000    -2.033000000
H    -1.430000000    -3.992000000    -0.735000000
O    -5.509000000    -2.507000000     2.266000000
H    -5.164000000    -1.923000000     1.590000000
H    -4.781000000    -2.624000000     2.875000000
O     4.464000000    -2.830000000     0.230000000
H     4.739000000    -3.738000000     0.096000000
H     3.587000000    -2.787000000    -0.149000000
O     1.138000000    -1.342000000    -5.587000000
H     1.013000000    -2.286000000    -5.483000000
H     0.806000000    -0.965000000    -4.773000000
O    -3.035000000    -0.332000000    -4.054000000
H    -3.083000000     0.620000000    -4.144000000
H    -3.612000000    -0.667000000    -4.740000000
O    -6.156000000     1.657000000    -1.611000000
H    -5.389000000     2.052000000    -2.026000000
H    -5.995000000     0.715000000    -1.659000000
O    -3.344000000     4.009000000     4.099000000
H    -3.679000000     3.237000000     3.642000000
H    -4.002000000     4.196000000     4.768000000
O     0.192000000    -6.080000000    -2.811000000
H    -0.670000000    -6.495000000    -2.825000000
H     0.783000000    -6.743000000    -3.169000000
O    -1.389000000     6.925000000    -1.069000000
H    -2.025000000     7.288000000    -0.452000000
H    -0.538000000     7.106000000    -0.669000000
O    -0.311000000     5.822000000    -3.817000000
H    -1.118000000     6.053000000    -3.356000000
H     0.212000000     5.355000000    -3.165000000
O    -4.268000000     3.449000000    -0.522000000
H    -4.416000000     2.790000000     0.157000000
H    -3.953000000     4.217000000    -0.045000000
O    -0.545000000    -8.483000000     0.105000000
H    -0.422000000    -7.690000000     0.627000000
H    -0.849000000    -9.139000000     0.733000000
O     2.088000000    -5.558000000     1.227000000
H     1.136000000    -5.652000000     1.214000000
H     2.258000000    -4.770000000     0.710000000
O    -0.772000000    -5.773000000     1.409000000
H    -1.672000000    -5.624000000     1.700000000
H    -0.497000000    -4.934000000     1.040000000
O    -3.237000000    -5.571000000     2.337000000
H    -4.002000000    -6.107000000     2.546000000
H    -3.390000000    -4.746000000     2.798000000
O     3.186000000     0.315000000    -6.058000000
H     3.666000000    -0.188000000    -6.716000000
H     2.373000000    -0.173000000    -5.930000000
O     6.772000000     1.240000000    -1.805000000
H     6.474000000     0.482000000    -1.302000000
H     6.728000000     1.970000000    -1.187000000
O     2.917000000     5.648000000    -0.563000000
H     2.751000000     4.987000000    -1.235000000
H     3.471000000     5.203000000     0.079000000
O    -6.297000000    -0.890000000    -2.314000000
H    -5.515000000    -1.434000000    -2.212000000
H    -6.972000000    -1.344000000    -1.808000000
O     0.299000000    -2.813000000     3.266000000
H     0.211000000    -3.724000000     3.547000000
H     0.888000000    -2.850000000     2.513000000
O     2.119000000     4.196000000    -2.595000000
H     2.848000000     4.475000000    -3.150000000
H     1.604000000     3.613000000    -3.152000000
O    -3.643000000     6.002000000     1.036000000
H    -4.582000000     5.818000000     1.051000000
H    -3.584000000     6.954000000     1.117000000
O    -0.577000000    -5.711000000     4.155000000
H    -0.765000000    -6.608000000     4.433000000
H    -0.319000000    -5.795000000     3.237000000
O     2.856000000    -6.202000000    -1.653000000
H     2.253000000    -6.370000000    -0.928000000
H     2.432000000    -5.511000000    -2.162000000
O    -4.398000000    -5.780000000    -2.003000000
H    -3.929000000    -6.608000000    -1.906000000
H    -3.801000000    -5.123000000    -1.645000000
O     3.413000000    -5.475000000     3.399000000
H     2.862000000    -5.319000000     2.632000000
H     3.603000000    -4.601000000     3.739000000
O     0.549000000     2.621000000    -4.173000000
H    -0.250000000     2.727000000    -4.689000000
H     0.395000000     1.833000000    -3.652000000
O     1.218000000     4.973000000     2.182000000
H     1.542000000     5.864000000     2.315000000
H     0.277000000     5.033000000     2.345000000
O    -1.980000000    -7.604000000    -2.252000000
H    -2.338000000    -8.356000000    -2.723000000
H    -1.625000000    -7.975000000    -1.444000000
O    -4.552000000     1.932000000     2.689000000
H    -4.982000000     1.079000000     2.739000000
H    -5.267000000     2.552000000     2.543000000
O    -1.378000000     5.500000000     2.895000000
H    -1.895000000     5.146000000     3.619000000
H    -1.977000000     5.495000000     2.148000000
O     1.667000000     2.804000000     3.869000000
H     1.339000000     3.223000000     4.664000000
H     1.562000000     3.469000000     3.187000000
O     4.036000000    -4.307000000    -5.529000000
H     3.660000000    -4.490000000    -6.390000000
H     3.283000000    -4.281000000    -4.939000000
O    -0.202000000    -0.247000000    -3.466000000
H    -1.118000000    -0.461000000    -3.643000000
H    -0.150000000    -0.185000000    -2.512000000
O    -4.619000000    -0.134000000     0.485000000
H    -4.399000000    -0.783000000    -0.183000000
H    -3.773000000     0.162000000     0.821000000
O    -1.084000000     8.407000000     3.173000000
H    -1.026000000     7.452000000     3.158000000
H    -0.209000000     8.697000000     3.432000000
O     5.338000000    -5.466000000    -0.523000000
H     5.307000000    -6.144000000     0.152000000
H     4.573000000    -5.640000000    -1.072000000
O    -0.305000000     0.838000000     3.975000000
H     0.300000000     1.577000000     3.907000000
H    -0.527000000     0.627000000     3.068000000
O     2.740000000    -3.367000000    -3.047000000
H     3.545000000    -2.994000000    -2.689000000
H     2.149000000    -3.428000000    -2.296000000
O    -3.185000000    -2.859000000     3.793000000
H    -2.344000000    -2.499000000     4.073000000
H    -3.821000000    -2.483000000     4.403000000
O     0.452000000    -3.856000000    -4.523000000
H     1.259000000    -3.745000000    -4.020000000
H    -0.061000000    -4.486000000    -4.016000000
O     0.789000000     7.320000000     0.414000000
H     1.373000000     6.578000000     0.261000000
H     1.303000000     7.924000000     0.950000000
O    -6.703000000     2.809000000     1.077000000
H    -7.636000000     2.988000000     1.198000000
H    -6.661000000     2.290000000     0.274000000
O     3.625000000    -2.769000000     2.905000000
H     3.967000000    -2.873000000     2.017000000
H     3.476000000    -1.828000000     2.996000000
O     6.455000000    -1.081000000    -0.211000000
H     7.196000000    -1.679000000    -0.308000000
H     5.729000000    -1.642000000     0.062000000
O     3.274000000     0.433000000     2.446000000
H     2.478000000     0.623000000     1.949000000
H     3.469000000     1.249000000     2.907000000
O    -3.564000000    -1.700000000    -1.511000000
H    -3.197000000    -1.172000000    -2.220000000
H    -3.236000000    -2.584000000    -1.676000000
O    -0.995000000    -1.387000000     5.217000000
H    -0.350000000    -1.654000000     4.562000000
H    -0.946000000    -0.431000000     5.227000000
