161
-3019.89232
C     0.750000000    -0.213000000    -1.279000000
H     1.189000000    -0.395000000    -2.257000000
C    -0.030000000     0.912000000    -1.004000000
H    -0.132000000     1.635000000    -1.809000000
C    -0.637000000     1.005000000     0.234000000
C    -1.648000000     2.047000000     0.555000000
H    -1.175000000     3.016000000     0.727000000
H    -2.330000000     2.087000000    -0.297000000
H    -2.287000000     1.761000000     1.393000000
C    -0.487000000    -0.016000000     1.200000000
H    -1.016000000    -0.009000000     2.150000000
C     0.368000000    -1.032000000     0.984000000
H     0.451000000    -1.753000000     1.793000000
C     0.953000000    -1.143000000    -0.289000000
C     1.818000000    -2.300000000    -0.626000000
O     1.831000000    -3.176000000     0.194000000
O     2.385000000    -2.425000000    -1.663000000
O     0.295000000    -3.516000000    -3.333000000
H     0.674000000    -4.306000000    -3.718000000
H     1.035000000    -3.076000000    -2.914000000
O     2.165000000    -0.756000000    -6.024000000
H     2.482000000    -1.636000000    -6.226000000
H     1.243000000    -0.880000000    -5.798000000
O    -4.399000000    -0.986000000    -3.560000000
H    -3.691000000    -1.622000000    -3.666000000
H    -3.965000000    -0.134000000    -3.611000000
O    -2.918000000     1.285000000    -3.147000000
H    -3.284000000     1.725000000    -2.379000000
H    -2.885000000     1.966000000    -3.819000000
O    -4.091000000    -0.699000000     2.788000000
H    -3.870000000     0.005000000     3.398000000
H    -4.798000000    -0.337000000     2.252000000
O     1.889000000    -5.274000000    -4.674000000
H     2.771000000    -4.977000000    -4.900000000
H     1.454000000    -5.396000000    -5.518000000
O     3.376000000    -6.582000000    -2.467000000
H     3.225000000    -7.508000000    -2.274000000
H     3.708000000    -6.576000000    -3.365000000
O    -1.221000000     5.458000000     2.080000000
H    -1.389000000     6.159000000     2.710000000
H    -0.329000000     5.170000000     2.274000000
O    -3.639000000     4.417000000    -2.776000000
H    -4.272000000     3.923000000    -2.254000000
H    -3.420000000     5.174000000    -2.232000000
O     3.018000000    -5.776000000     0.184000000
H     3.115000000    -6.149000000    -0.692000000
H     2.540000000    -4.958000000     0.045000000
O    -6.759000000     0.557000000     2.462000000
H    -6.582000000     1.489000000     2.331000000
H    -7.340000000     0.529000000     3.223000000
O     0.877000000    -7.333000000     0.757000000
H     0.438000000    -6.531000000     1.041000000
H     1.784000000    -7.068000000     0.604000000
O    -3.871000000    -3.766000000    -0.059000000
H    -4.724000000    -3.586000000     0.337000000
H    -3.494000000    -2.901000000    -0.220000000
O    -6.780000000     3.248000000     0.907000000
H    -7.474000000     3.903000000     0.988000000
H    -6.000000000     3.682000000     1.250000000
O     6.296000000     0.451000000    -3.806000000
H     5.539000000    -0.042000000    -3.490000000
H     6.166000000     1.335000000    -3.462000000
O    -1.339000000     5.852000000    -0.620000000
H    -1.394000000     5.586000000     0.298000000
H    -0.703000000     6.567000000    -0.624000000
O    -4.310000000     7.099000000     0.971000000
H    -4.953000000     7.057000000     0.263000000
H    -4.160000000     6.185000000     1.211000000
O    -5.508000000     0.305000000    -1.095000000
H    -5.476000000    -0.320000000    -1.819000000
H    -6.120000000    -0.084000000    -0.470000000
O     1.320000000    -3.730000000     4.974000000
H     1.750000000    -4.574000000     5.114000000
H     1.293000000    -3.629000000     4.023000000
O    -0.679000000     2.093000000    -7.036000000
H    -1.338000000     2.760000000    -6.845000000
H    -0.419000000     1.760000000    -6.177000000
O     4.435000000    -4.030000000    -1.724000000
H     3.975000000    -4.836000000    -1.959000000
H     3.740000000    -3.381000000    -1.617000000
O    -1.711000000    -5.725000000    -0.410000000
H    -2.359000000    -5.109000000    -0.069000000
H    -0.960000000    -5.631000000     0.175000000
O     4.128000000    -7.350000000     2.443000000
H     3.882000000    -8.229000000     2.153000000
H     3.696000000    -6.764000000     1.822000000
O     1.904000000     2.466000000    -4.275000000
H     1.917000000     2.992000000    -3.476000000
H     1.084000000     1.975000000    -4.225000000
O    -0.955000000     2.921000000     3.738000000
H    -0.572000000     3.217000000     2.913000000
H    -0.450000000     3.375000000     4.413000000
O    -1.636000000    -3.076000000     2.937000000
H    -2.048000000    -2.215000000     2.870000000
H    -2.362000000    -3.677000000     3.100000000
O    -4.221000000     4.057000000     1.733000000
H    -3.929000000     3.618000000     0.934000000
H    -3.609000000     3.759000000     2.407000000
O     1.091000000     2.994000000     1.695000000
H     1.195000000     2.241000000     1.113000000
H     1.567000000     3.701000000     1.259000000
O     7.065000000    -4.923000000    -2.259000000
H     7.236000000    -5.361000000    -3.093000000
H     6.117000000    -4.795000000    -2.245000000
O    -0.489000000     0.787000000    -4.291000000
H    -1.175000000     1.152000000    -3.732000000
H    -0.808000000    -0.084000000    -4.524000000
O     1.091000000     4.424000000    -2.187000000
H     1.736000000     5.031000000    -1.824000000
H     0.282000000     4.934000000    -2.233000000
O    -3.150000000     1.371000000     4.182000000
H    -2.565000000     2.060000000     3.868000000
H    -2.923000000     1.266000000     5.106000000
O     3.950000000    -0.914000000    -3.398000000
H     3.267000000    -0.275000000    -3.599000000
H     3.563000000    -1.476000000    -2.727000000
O     5.563000000    -3.225000000    -4.904000000
H     4.985000000    -2.645000000    -4.409000000
H     5.778000000    -2.731000000    -5.695000000
O     2.127000000    -0.364000000     3.835000000
H     2.081000000     0.575000000     3.659000000
H     1.255000000    -0.591000000     4.156000000
O     2.446000000     2.627000000     4.421000000
H     1.809000000     3.022000000     5.017000000
H     2.190000000     2.941000000     3.554000000
O     0.247000000    -4.627000000     1.776000000
H     0.773000000    -4.025000000     1.250000000
H    -0.377000000    -4.063000000     2.232000000
O    -0.835000000    -1.973000000    -5.109000000
H    -1.566000000    -2.543000000    -5.347000000
H    -0.503000000    -2.339000000    -4.289000000
O    -4.734000000     2.822000000    -0.892000000
H    -5.550000000     2.973000000    -0.414000000
H    -4.794000000     1.914000000    -1.186000000
O     5.512000000    -3.382000000     3.326000000
H     5.377000000    -3.602000000     4.247000000
H     4.658000000    -3.073000000     3.025000000
O     5.233000000     0.003000000     1.273000000
H     5.243000000    -0.545000000     0.488000000
H     6.116000000    -0.079000000     1.633000000
O     3.060000000    -2.538000000     2.431000000
H     2.517000000    -2.631000000     1.648000000
H     2.802000000    -1.695000000     2.803000000
O    -2.652000000    -1.406000000    -0.693000000
H    -1.962000000    -1.024000000    -0.152000000
H    -2.871000000    -0.720000000    -1.324000000
O    -0.298000000    -0.953000000     4.720000000
H    -0.836000000    -0.360000000     5.244000000
H    -0.480000000    -1.822000000     5.078000000
O    -2.409000000    -3.199000000    -3.026000000
H    -2.297000000    -2.685000000    -2.227000000
H    -1.559000000    -3.618000000    -3.164000000
O    -0.430000000    -6.215000000     4.030000000
H    -0.127000000    -5.638000000     3.329000000
H    -1.369000000    -6.309000000     3.874000000
O     6.923000000    -2.484000000    -1.007000000
H     5.992000000    -2.442000000    -1.223000000
H     7.188000000    -3.368000000    -1.260000000
O    -3.923000000    -2.549000000     5.252000000
H    -3.894000000    -1.925000000     4.527000000
H    -3.010000000    -2.646000000     5.522000000
