161
-3027.27109
C     0.682000000    -0.566000000    -1.179000000
H     1.277000000    -0.757000000    -2.069000000
C     1.129000000     0.540000000    -0.459000000
H     2.070000000     1.050000000    -0.645000000
C     0.433000000     0.872000000     0.656000000
C     0.911000000     2.120000000     1.516000000
H     1.898000000     2.065000000     1.981000000
H     0.979000000     3.007000000     0.882000000
H     0.174000000     2.260000000     2.310000000
C    -0.721000000     0.225000000     1.031000000
H    -1.382000000     0.520000000     1.842000000
C    -1.169000000    -0.835000000     0.267000000
H    -2.068000000    -1.342000000     0.608000000
C    -0.474000000    -1.283000000    -0.856000000
C    -1.098000000    -2.309000000    -1.752000000
O    -2.247000000    -2.694000000    -1.529000000
O    -0.392000000    -2.865000000    -2.598000000
O    -3.678000000    -0.509000000    -1.672000000
H    -3.644000000     0.020000000    -0.876000000
H    -3.071000000    -1.230000000    -1.507000000
O     1.471000000     1.058000000     6.701000000
H     2.417000000     0.913000000     6.725000000
H     1.372000000     2.006000000     6.780000000
O     5.470000000     1.598000000     1.005000000
H     4.872000000     1.749000000     0.273000000
H     4.974000000     1.045000000     1.609000000
O     0.239000000     6.618000000    -1.086000000
H     0.395000000     5.917000000    -1.719000000
H     1.105000000     6.816000000    -0.729000000
O     5.310000000    -2.838000000     0.751000000
H     4.496000000    -2.386000000     0.975000000
H     5.587000000    -2.437000000    -0.073000000
O     4.478000000    -0.984000000    -2.496000000
H     3.718000000    -0.408000000    -2.412000000
H     4.174000000    -1.831000000    -2.170000000
O     2.978000000    -3.175000000    -1.266000000
H     3.585000000    -3.801000000    -0.870000000
H     2.798000000    -3.533000000    -2.135000000
O     4.337000000     4.907000000     1.418000000
H     4.325000000     5.502000000     0.669000000
H     5.058000000     4.305000000     1.234000000
O     0.055000000    -5.209000000     3.737000000
H    -0.721000000    -4.808000000     3.345000000
H    -0.185000000    -6.127000000     3.856000000
O     0.197000000     0.826000000    -4.618000000
H     0.652000000     0.908000000    -5.456000000
H    -0.728000000     0.943000000    -4.836000000
O     1.412000000    -4.474000000    -3.333000000
H     0.757000000    -3.936000000    -2.889000000
H     1.036000000    -4.643000000    -4.198000000
O     2.112000000    -4.449000000     2.303000000
H     1.563000000    -4.810000000     3.000000000
H     1.610000000    -4.598000000     1.502000000
O     4.534000000     2.557000000     5.240000000
H     4.601000000     1.698000000     5.658000000
H     3.686000000     2.896000000     5.525000000
O     0.889000000    -5.047000000    -5.848000000
H     1.067000000    -4.756000000    -6.743000000
H    -0.027000000    -5.324000000    -5.864000000
O    -1.715000000    -4.939000000    -3.762000000
H    -1.323000000    -4.237000000    -3.244000000
H    -2.295000000    -4.488000000    -4.376000000
O    -5.376000000    -1.470000000     2.740000000
H    -4.858000000    -1.475000000     1.935000000
H    -5.317000000    -0.568000000     3.057000000
O    -2.408000000     1.675000000     5.821000000
H    -2.217000000     0.824000000     5.427000000
H    -3.342000000     1.637000000     6.030000000
O    -1.545000000     4.382000000    -0.094000000
H    -1.664000000     4.944000000     0.672000000
H    -1.191000000     4.964000000    -0.766000000
O     4.500000000    -0.491000000     3.372000000
H     3.825000000    -0.918000000     2.845000000
H     4.071000000    -0.307000000     4.207000000
O    -1.780000000     5.749000000     2.156000000
H    -2.389000000     5.361000000     2.785000000
H    -0.979000000     5.897000000     2.658000000
O     3.113000000    -1.965000000    -6.205000000
H     2.339000000    -2.407000000    -5.857000000
H     3.815000000    -2.610000000    -6.121000000
O     2.900000000     1.106000000    -3.529000000
H     1.976000000     0.927000000    -3.703000000
H     3.258000000     1.364000000    -4.379000000
O    -3.536000000     2.554000000     0.195000000
H    -4.015000000     3.144000000     0.777000000
H    -2.703000000     2.998000000     0.038000000
O    -6.157000000     0.878000000    -2.369000000
H    -5.444000000     0.331000000    -2.038000000
H    -6.723000000     0.272000000    -2.846000000
O    -1.788000000    -0.567000000     4.099000000
H    -2.685000000    -0.900000000     4.106000000
H    -1.568000000    -0.490000000     3.171000000
O    -1.706000000    -5.459000000     0.733000000
H    -2.529000000    -5.778000000     0.363000000
H    -1.910000000    -5.278000000     1.650000000
O    -2.471000000    -3.778000000     2.752000000
H    -3.061000000    -3.390000000     2.105000000
H    -3.033000000    -3.976000000     3.501000000
O     2.884000000    -6.900000000    -3.522000000
H     2.826000000    -6.825000000    -4.475000000
H     2.572000000    -6.055000000    -3.196000000
O    -7.273000000    -3.495000000    -2.366000000
H    -6.317000000    -3.499000000    -2.311000000
H    -7.563000000    -3.797000000    -1.505000000
O    -0.404000000     3.503000000     6.105000000
H    -0.893000000     2.694000000     5.954000000
H    -0.097000000     3.763000000     5.236000000
O     0.170000000    -1.790000000    -5.049000000
H    -0.054000000    -0.873000000    -4.893000000
H     0.099000000    -2.204000000    -4.188000000
O     6.369000000    -1.799000000    -4.059000000
H     5.625000000    -1.418000000    -3.593000000
H     5.980000000    -2.233000000    -4.818000000
O     1.478000000     4.669000000    -2.409000000
H     2.299000000     5.138000000    -2.259000000
H     1.579000000     4.284000000    -3.280000000
O     0.114000000    -1.463000000     5.828000000
H     0.549000000    -0.730000000     6.264000000
H    -0.500000000    -1.050000000     5.220000000
O    -3.061000000    -1.422000000    -4.402000000
H    -2.371000000    -0.759000000    -4.376000000
H    -3.615000000    -1.222000000    -3.648000000
O    -3.917000000    -2.910000000     0.549000000
H    -3.262000000    -3.080000000    -0.128000000
H    -4.751000000    -3.142000000     0.139000000
O     4.455000000     2.117000000    -1.683000000
H     5.039000000     2.402000000    -2.386000000
H     3.737000000     1.673000000    -2.134000000
O    -3.576000000     4.331000000     3.932000000
H    -2.716000000     4.001000000     4.193000000
H    -4.170000000     4.013000000     4.612000000
O     3.735000000     6.688000000     4.505000000
H     3.644000000     5.742000000     4.389000000
H     3.423000000     6.852000000     5.395000000
O     0.225000000    -2.758000000    -7.679000000
H     0.166000000    -2.315000000    -6.833000000
H    -0.596000000    -3.246000000    -7.751000000
O    -3.903000000    -5.992000000    -0.630000000
H    -4.416000000    -5.870000000     0.169000000
H    -4.082000000    -5.210000000    -1.152000000
O    -3.890000000    -3.839000000    -5.327000000
H    -4.799000000    -3.761000000    -5.615000000
H    -3.576000000    -2.936000000    -5.281000000
O     2.803000000     4.235000000     3.621000000
H     3.290000000     4.340000000     2.804000000
H     3.154000000     3.433000000     4.008000000
O     0.416000000     5.582000000     3.799000000
H     1.198000000     5.031000000     3.819000000
H     0.753000000     6.473000000     3.708000000
O    -0.310000000    -6.905000000    -2.079000000
H    -1.185000000    -6.545000000    -2.224000000
H     0.037000000    -7.055000000    -2.959000000
O    -4.592000000    -3.884000000    -2.662000000
H    -3.802000000    -3.412000000    -2.399000000
H    -4.329000000    -4.376000000    -3.439000000
O     0.896000000    -5.424000000     0.010000000
H     1.026000000    -5.916000000    -0.801000000
H    -0.054000000    -5.330000000     0.084000000
O     2.743000000    -1.616000000     1.485000000
H     2.484000000    -2.494000000     1.766000000
H     2.214000000    -1.448000000     0.705000000
