161
-3061.71137
C     0.816000000    -1.176000000    -0.302000000
H     1.572000000    -1.953000000    -0.384000000
C     1.273000000    -0.068000000     0.405000000
H     2.296000000    -0.012000000     0.768000000
C     0.365000000     1.002000000     0.586000000
C     0.780000000     2.228000000     1.304000000
H     0.358000000     2.171000000     2.310000000
H     1.865000000     2.350000000     1.315000000
H     0.329000000     3.105000000     0.834000000
C    -0.897000000     0.886000000     0.112000000
H    -1.573000000     1.697000000     0.369000000
C    -1.346000000    -0.220000000    -0.592000000
H    -2.401000000    -0.308000000    -0.839000000
C    -0.464000000    -1.266000000    -0.793000000
C    -0.890000000    -2.495000000    -1.501000000
O    -2.005000000    -2.488000000    -2.080000000
O    -0.071000000    -3.453000000    -1.504000000
O    -0.878000000     5.991000000    -3.532000000
H    -0.688000000     5.493000000    -4.327000000
H    -1.175000000     5.334000000    -2.903000000
O    -4.746000000    -2.030000000    -2.419000000
H    -5.146000000    -1.832000000    -1.573000000
H    -3.804000000    -2.011000000    -2.249000000
O     6.312000000     1.494000000    -0.576000000
H     5.620000000     2.076000000    -0.890000000
H     5.934000000     0.617000000    -0.636000000
O    -0.240000000     3.704000000    -1.898000000
H     0.180000000     2.974000000    -2.352000000
H     0.481000000     4.289000000    -1.666000000
O     5.148000000    -1.100000000     0.308000000
H     4.845000000    -1.649000000     1.032000000
H     4.353000000    -0.686000000    -0.028000000
O     2.001000000     5.411000000     2.284000000
H     2.726000000     5.547000000     2.894000000
H     2.295000000     4.697000000     1.718000000
O     5.317000000    -5.374000000    -1.110000000
H     4.521000000    -4.937000000    -1.413000000
H     5.193000000    -6.292000000    -1.351000000
O     0.528000000    -0.410000000    -3.934000000
H    -0.190000000    -0.998000000    -3.703000000
H     0.271000000    -0.038000000    -4.778000000
O     3.056000000    -3.974000000    -1.930000000
H     2.140000000    -3.765000000    -1.749000000
H     3.372000000    -3.235000000    -2.450000000
O     5.647000000     5.169000000     0.045000000
H     5.266000000     4.370000000    -0.319000000
H     5.993000000     4.903000000     0.897000000
O     4.642000000    -1.847000000     3.520000000
H     4.626000000    -2.209000000     4.406000000
H     4.149000000    -2.477000000     2.994000000
O     1.339000000    -7.843000000    -3.409000000
H     1.506000000    -7.743000000    -4.346000000
H     0.761000000    -7.112000000    -3.190000000
O    -0.140000000    -5.641000000    -2.885000000
H    -0.854000000    -5.891000000    -2.299000000
H     0.032000000    -4.723000000    -2.676000000
O    -2.993000000    -0.510000000     2.352000000
H    -3.651000000    -1.119000000     2.016000000
H    -2.224000000    -0.661000000     1.804000000
O    -4.533000000     2.325000000    -0.282000000
H    -3.848000000     2.966000000    -0.475000000
H    -5.073000000     2.746000000     0.386000000
O     1.812000000     5.484000000    -1.606000000
H     2.417000000     5.928000000    -1.011000000
H     1.636000000     6.128000000    -2.292000000
O    -1.553000000     0.842000000     4.296000000
H    -0.825000000     0.226000000     4.213000000
H    -2.146000000     0.610000000     3.582000000
O     4.343000000     3.290000000    -1.580000000
H     3.401000000     3.250000000    -1.747000000
H     4.673000000     3.918000000    -2.223000000
O     0.142000000    -6.179000000    -5.728000000
H     0.093000000    -5.572000000    -4.990000000
H    -0.282000000    -6.977000000    -5.411000000
O    -2.561000000     4.310000000    -0.796000000
H    -2.152000000     4.907000000    -0.170000000
H    -1.826000000     3.922000000    -1.272000000
O    -3.649000000     1.235000000     5.956000000
H    -2.894000000     1.105000000     5.382000000
H    -3.925000000     2.136000000     5.788000000
O    -2.675000000     4.062000000     2.346000000
H    -3.016000000     3.858000000     3.217000000
H    -1.751000000     4.266000000     2.493000000
O     7.249000000     1.013000000     1.982000000
H     6.708000000     1.075000000     1.195000000
H     7.276000000     0.078000000     2.182000000
O    -2.185000000     1.100000000    -3.899000000
H    -2.945000000     1.620000000    -3.639000000
H    -1.879000000     0.699000000    -3.085000000
O    -5.098000000    -2.325000000    -5.276000000
H    -5.027000000    -2.648000000    -4.378000000
H    -6.020000000    -2.085000000    -5.371000000
O     0.787000000    -0.630000000     3.839000000
H     0.565000000    -1.431000000     3.364000000
H     1.632000000    -0.364000000     3.478000000
O    -1.828000000    -6.363000000    -0.488000000
H    -2.326000000    -6.191000000     0.311000000
H    -2.304000000    -5.892000000    -1.172000000
O    -0.265000000    -2.774000000     2.546000000
H     0.275000000    -3.268000000     1.929000000
H    -0.950000000    -3.388000000     2.810000000
O     3.514000000    -5.793000000    -3.773000000
H     2.918000000    -6.489000000    -3.498000000
H     3.192000000    -5.011000000    -3.324000000
O    -5.362000000    -0.324000000     0.052000000
H    -6.261000000    -0.011000000    -0.043000000
H    -4.834000000     0.473000000     0.093000000
O    -1.008000000     7.041000000     1.248000000
H    -0.772000000     6.261000000     1.750000000
H    -0.170000000     7.448000000     1.030000000
O    -4.778000000     1.857000000    -3.040000000
H    -4.953000000     2.714000000    -3.429000000
H    -4.692000000     2.032000000    -2.103000000
O    -0.266000000     2.290000000     6.267000000
H    -0.487000000     1.954000000     5.398000000
H    -0.321000000     3.242000000     6.177000000
O     4.061000000    -1.906000000    -3.777000000
H     4.113000000    -1.194000000    -3.140000000
H     3.837000000    -1.475000000    -4.601000000
O     1.489000000     1.922000000    -2.921000000
H     1.399000000     1.015000000    -2.627000000
H     2.253000000     1.912000000    -3.497000000
O    -5.001000000    -2.912000000     0.776000000
H    -5.038000000    -1.978000000     0.569000000
H    -5.688000000    -3.040000000     1.430000000
O     4.173000000     0.457000000    -2.634000000
H     5.036000000     0.754000000    -2.922000000
H     3.569000000     0.802000000    -3.292000000
O    -5.630000000     1.491000000     2.627000000
H    -6.001000000     0.656000000     2.910000000
H    -4.868000000     1.249000000     2.101000000
O    -1.922000000    -1.631000000    -4.613000000
H    -2.104000000    -0.711000000    -4.419000000
H    -2.164000000    -2.096000000    -3.812000000
O    -5.067000000    -6.741000000    -1.138000000
H    -5.275000000    -6.618000000    -0.212000000
H    -4.331000000    -6.151000000    -1.298000000
O    -2.974000000    -4.755000000    -4.782000000
H    -3.563000000    -4.543000000    -5.507000000
H    -2.108000000    -4.810000000    -5.185000000
O     3.849000000     5.326000000     4.167000000
H     4.795000000     5.336000000     4.021000000
H     3.730000000     4.757000000     4.928000000
O    -3.758000000    -5.258000000     1.463000000
H    -4.081000000    -4.367000000     1.329000000
H    -3.179000000    -5.190000000     2.222000000
O    -0.296000000     4.886000000     3.514000000
H     0.597000000     5.064000000     3.217000000
H    -0.375000000     5.369000000     4.336000000
O    -0.156000000    -8.172000000     0.713000000
H    -0.647000000    -7.582000000     0.141000000
H    -0.046000000    -8.970000000     0.196000000
O    -3.279000000    -4.821000000    -2.064000000
H    -3.054000000    -3.904000000    -1.911000000
H    -3.338000000    -4.898000000    -3.016000000
O     0.976000000    -4.351000000     0.700000000
H     0.751000000    -5.273000000     0.828000000
H     0.701000000    -4.160000000    -0.196000000
O     3.599000000    -3.337000000     1.346000000
H     3.774000000    -4.230000000     1.050000000
H     2.650000000    -3.239000000     1.264000000
