161
-3014.89834
C     1.147000000    -0.213000000     1.020000000
H     1.927000000    -0.257000000     1.775000000
C    -0.204000000     0.208000000     1.266000000
H    -0.529000000     0.470000000     2.270000000
C    -1.116000000     0.396000000     0.267000000
C    -2.524000000     0.763000000     0.656000000
H    -2.622000000     1.701000000     1.207000000
H    -3.250000000     0.753000000    -0.160000000
H    -2.880000000    -0.078000000     1.255000000
C    -0.763000000     0.118000000    -1.046000000
H    -1.461000000     0.173000000    -1.877000000
C     0.479000000    -0.293000000    -1.334000000
H     0.781000000    -0.463000000    -2.364000000
C     1.442000000    -0.400000000    -0.344000000
C     2.853000000    -0.860000000    -0.778000000
O     2.993000000    -1.409000000    -1.836000000
O     3.735000000    -0.616000000     0.021000000
O    -3.947000000    -0.590000000     3.958000000
H    -4.279000000    -0.455000000     3.071000000
H    -3.436000000    -1.397000000     3.903000000
O    -1.326000000     0.767000000    -4.934000000
H    -1.900000000     1.288000000    -5.495000000
H    -0.796000000     1.413000000    -4.467000000
O    -3.831000000     0.909000000    -3.016000000
H    -3.530000000     0.024000000    -2.809000000
H    -3.677000000     1.001000000    -3.956000000
O    -0.635000000    -4.293000000    -4.664000000
H     0.287000000    -4.098000000    -4.496000000
H    -1.039000000    -3.436000000    -4.803000000
O     3.161000000     0.943000000    -3.240000000
H     3.181000000     0.241000000    -2.589000000
H     3.922000000     1.484000000    -3.032000000
O    -5.016000000     0.371000000     6.273000000
H    -5.208000000     1.265000000     5.991000000
H    -4.759000000    -0.083000000     5.470000000
O    -1.941000000     4.687000000     1.756000000
H    -2.080000000     5.307000000     1.041000000
H    -2.820000000     4.381000000     1.982000000
O    -6.071000000    -1.918000000     1.211000000
H    -6.566000000    -1.303000000     0.670000000
H    -6.488000000    -1.871000000     2.071000000
O     0.135000000    -4.258000000     2.613000000
H     0.980000000    -3.855000000     2.814000000
H     0.329000000    -4.886000000     1.917000000
O    -3.474000000    -2.098000000    -2.269000000
H    -3.175000000    -2.012000000    -1.363000000
H    -4.369000000    -2.428000000    -2.195000000
O    -0.375000000    -3.338000000    -1.210000000
H     0.347000000    -3.007000000    -1.746000000
H    -0.830000000    -2.551000000    -0.910000000
O    -3.589000000    -2.660000000     0.491000000
H    -3.099000000    -2.572000000     1.309000000
H    -4.478000000    -2.383000000     0.714000000
O     4.469000000    -3.510000000    -0.860000000
H     4.324000000    -2.599000000    -1.115000000
H     5.270000000    -3.763000000    -1.319000000
O    -1.994000000     1.375000000     4.852000000
H    -2.640000000     2.069000000     4.724000000
H    -2.413000000     0.589000000     4.504000000
O    -0.439000000     4.044000000    -2.753000000
H     0.059000000     3.337000000    -3.164000000
H    -0.117000000     4.840000000    -3.174000000
O    -0.053000000     0.191000000    -7.185000000
H    -0.707000000     0.468000000    -7.826000000
H    -0.525000000     0.175000000    -6.353000000
O    -5.928000000     2.657000000     0.704000000
H    -6.327000000     3.421000000     0.287000000
H    -5.123000000     2.993000000     1.098000000
O     3.626000000    -4.410000000     1.481000000
H     4.258000000    -3.822000000     1.896000000
H     3.572000000    -4.104000000     0.576000000
O     2.018000000    -2.456000000     4.867000000
H     1.175000000    -2.010000000     4.788000000
H     2.465000000    -1.999000000     5.579000000
O    -7.945000000    -0.504000000    -0.028000000
H    -8.033000000     0.237000000     0.572000000
H    -7.708000000    -0.106000000    -0.866000000
O    -2.353000000    -2.050000000    -4.645000000
H    -2.091000000    -1.129000000    -4.638000000
H    -2.948000000    -2.135000000    -3.900000000
O     1.979000000    -6.324000000    -3.881000000
H     2.934000000    -6.372000000    -3.833000000
H     1.783000000    -5.390000000    -3.801000000
O     2.980000000     3.644000000     3.139000000
H     2.095000000     3.321000000     2.968000000
H     3.551000000     2.908000000     2.917000000
O    -3.220000000     3.631000000    -2.474000000
H    -3.246000000     2.674000000    -2.470000000
H    -2.291000000     3.845000000    -2.386000000
O     5.546000000     1.412000000    -0.924000000
H     6.148000000     1.673000000    -0.227000000
H     4.988000000     0.747000000    -0.521000000
O    -2.058000000    -2.811000000     2.897000000
H    -2.888000000    -3.284000000     2.835000000
H    -1.393000000    -3.498000000     2.933000000
O     0.205000000     3.311000000     2.595000000
H    -0.475000000     3.943000000     2.363000000
H    -0.275000000     2.508000000     2.800000000
O     3.747000000     0.240000000    -5.720000000
H     3.467000000     0.252000000    -4.805000000
H     3.861000000     1.163000000    -5.948000000
O     3.523000000     1.432000000     5.279000000
H     2.650000000     1.625000000     4.938000000
H     3.487000000     0.506000000     5.518000000
O     0.818000000     2.207000000    -4.260000000
H     1.092000000     2.595000000    -5.091000000
H     1.612000000     1.804000000    -3.911000000
O     3.714000000     3.371000000    -0.559000000
H     2.784000000     3.184000000    -0.433000000
H     4.120000000     2.510000000    -0.661000000
O     7.214000000    -3.067000000     0.873000000
H     6.800000000    -3.530000000     0.144000000
H     6.560000000    -2.428000000     1.153000000
O    -4.669000000    -3.823000000     3.032000000
H    -5.320000000    -3.893000000     2.333000000
H    -5.016000000    -4.369000000     3.737000000
O     4.170000000     1.507000000     2.019000000
H     3.913000000     0.791000000     1.437000000
H     5.028000000     1.247000000     2.354000000
O    -6.720000000     0.502000000     2.664000000
H    -6.304000000     1.320000000     2.391000000
H    -7.658000000     0.693000000     2.649000000
O     1.860000000    -3.396000000    -3.604000000
H     2.077000000    -3.144000000    -4.501000000
H     2.326000000    -2.762000000    -3.058000000
O     5.447000000    -1.250000000     1.742000000
H     4.751000000    -1.103000000     1.101000000
H     6.128000000    -0.621000000     1.504000000
O     4.468000000    -2.918000000     3.811000000
H     4.857000000    -2.226000000     3.276000000
H     3.644000000    -2.545000000     4.123000000
O     3.058000000    -6.848000000    -0.912000000
H     3.664000000    -7.499000000    -1.267000000
H     3.087000000    -6.126000000    -1.540000000
O     5.239000000    -1.809000000    -3.813000000
H     5.729000000    -0.996000000    -3.692000000
H     4.516000000    -1.749000000    -3.189000000
O     7.626000000     0.382000000     1.266000000
H     7.774000000     1.305000000     1.060000000
H     8.416000000     0.111000000     1.733000000
O    -3.798000000     3.250000000     4.764000000
H    -4.729000000     3.387000000     4.938000000
H    -3.424000000     4.131000000     4.755000000
O     0.627000000     0.688000000     5.388000000
H     0.678000000     0.534000000     6.331000000
H    -0.304000000     0.829000000     5.218000000
O     0.843000000     3.241000000    -0.143000000
H     0.023000000     3.250000000    -0.635000000
H     0.696000000     2.604000000     0.557000000
O    -4.862000000     4.691000000     2.149000000
H    -5.213000000     5.229000000     1.439000000
H    -5.599000000     4.579000000     2.750000000
O    -6.544000000     1.253000000    -1.805000000
H    -6.092000000     1.721000000    -1.103000000
H    -5.968000000     0.516000000    -2.011000000
O     6.811000000    -3.949000000    -2.100000000
H     6.647000000    -3.686000000    -3.005000000
H     7.715000000    -4.261000000    -2.101000000
O     0.415000000    -5.466000000     0.237000000
H     1.164000000    -5.734000000    -0.296000000
H     0.158000000    -4.616000000    -0.122000000
