161
-3045.02179
C     0.572000000    -0.445000000    -1.268000000
H     1.071000000    -0.634000000    -2.215000000
C     1.175000000     0.466000000    -0.377000000
H     2.048000000     1.001000000    -0.744000000
C     0.507000000     0.813000000     0.766000000
C     1.198000000     1.846000000     1.646000000
H     0.459000000     2.140000000     2.394000000
H     2.059000000     1.361000000     2.110000000
H     1.428000000     2.683000000     0.984000000
C    -0.774000000     0.213000000     1.107000000
H    -1.187000000     0.664000000     2.006000000
C    -1.408000000    -0.681000000     0.259000000
H    -2.307000000    -1.186000000     0.604000000
C    -0.671000000    -1.020000000    -0.942000000
C    -1.243000000    -2.083000000    -1.887000000
O    -2.256000000    -2.684000000    -1.526000000
O    -0.671000000    -2.461000000    -2.912000000
O    -1.110000000     4.049000000     0.582000000
H    -2.023000000     4.163000000     0.845000000
H    -1.123000000     3.300000000    -0.013000000
O     4.945000000     5.538000000     0.705000000
H     4.927000000     6.490000000     0.610000000
H     4.412000000     5.365000000     1.481000000
O     2.413000000    -2.229000000    -4.896000000
H     2.313000000    -2.710000000    -4.074000000
H     1.619000000    -1.699000000    -4.961000000
O     4.501000000    -1.290000000     2.370000000
H     4.461000000    -0.344000000     2.228000000
H     5.349000000    -1.434000000     2.789000000
O     1.520000000    -3.958000000    -3.046000000
H     1.196000000    -4.767000000    -2.651000000
H     0.729000000    -3.472000000    -3.281000000
O     4.330000000    -0.455000000    -3.712000000
H     3.483000000    -0.046000000    -3.889000000
H     4.169000000    -1.393000000    -3.815000000
O    -1.441000000     2.205000000    -1.501000000
H    -1.523000000     1.851000000    -2.387000000
H    -1.544000000     1.444000000    -0.930000000
O    -4.381000000    -2.928000000    -3.196000000
H    -4.852000000    -2.243000000    -2.721000000
H    -3.580000000    -3.063000000    -2.689000000
O     4.521000000    -1.855000000    -0.572000000
H     4.202000000    -1.513000000     0.264000000
H     4.708000000    -1.075000000    -1.094000000
O     0.523000000     4.895000000     2.661000000
H     0.178000000     4.271000000     2.023000000
H    -0.063000000     4.817000000     3.414000000
O     3.228000000     4.452000000    -1.286000000
H     3.658000000     4.825000000    -0.516000000
H     3.948000000     4.146000000    -1.838000000
O     2.079000000     0.986000000    -4.490000000
H     1.771000000     1.217000000    -5.366000000
H     1.488000000     1.450000000    -3.898000000
O     2.323000000    -0.042000000     4.537000000
H     2.565000000     0.481000000     3.773000000
H     2.210000000    -0.929000000     4.194000000
O     0.952000000     2.775000000    -2.589000000
H     1.463000000     3.280000000    -1.956000000
H     0.243000000     2.391000000    -2.073000000
O     0.115000000    -5.893000000    -6.169000000
H    -0.224000000    -5.813000000    -7.060000000
H    -0.415000000    -5.284000000    -5.655000000
O     1.199000000     2.397000000     5.980000000
H     0.951000000     1.493000000     6.173000000
H     1.898000000     2.321000000     5.331000000
O    -1.043000000     5.184000000    -3.165000000
H    -0.550000000     4.624000000    -2.565000000
H    -1.046000000     6.043000000    -2.743000000
O    -2.332000000    -1.884000000     3.825000000
H    -1.776000000    -1.107000000     3.880000000
H    -2.758000000    -1.934000000     4.681000000
O    -5.720000000    -0.338000000     0.333000000
H    -6.030000000    -0.653000000    -0.516000000
H    -6.512000000    -0.264000000     0.866000000
O     5.047000000     0.889000000    -1.122000000
H     4.643000000     1.757000000    -1.119000000
H     5.225000000     0.711000000    -2.046000000
O     0.152000000    -6.279000000    -1.206000000
H    -0.512000000    -5.721000000    -0.801000000
H     0.790000000    -6.436000000    -0.510000000
O     3.568000000     0.211000000     6.910000000
H     3.933000000     1.058000000     6.652000000
H     2.969000000    -0.018000000     6.200000000
O    -4.162000000     0.475000000     2.865000000
H    -4.863000000     0.249000000     2.254000000
H    -3.838000000    -0.369000000     3.180000000
O    -1.423000000     0.880000000    -3.578000000
H    -1.313000000    -0.005000000    -3.927000000
H    -1.113000000     1.454000000    -4.279000000
O    -3.274000000     4.576000000     3.681000000
H    -3.679000000     4.733000000     4.534000000
H    -2.349000000     4.429000000     3.878000000
O     1.510000000    -3.613000000     0.217000000
H     1.572000000    -2.773000000    -0.238000000
H     0.574000000    -3.812000000     0.226000000
O    -3.288000000    -5.763000000    -3.254000000
H    -3.947000000    -5.761000000    -2.559000000
H    -3.784000000    -5.936000000    -4.054000000
O    -5.179000000     1.839000000     5.105000000
H    -5.425000000     1.117000000     5.683000000
H    -4.710000000     1.420000000     4.384000000
O     3.188000000     5.143000000     2.601000000
H     3.151000000     5.221000000     3.554000000
H     2.296000000     4.909000000     2.345000000
O    -6.814000000    -4.018000000    -3.502000000
H    -5.889000000    -3.775000000    -3.554000000
H    -6.840000000    -4.723000000    -2.856000000
O    -0.610000000    -1.534000000    -5.227000000
H    -0.750000000    -2.327000000    -5.745000000
H    -0.516000000    -1.850000000    -4.328000000
O    -0.998000000     4.253000000     5.198000000
H    -0.951000000     3.331000000     5.449000000
H    -0.360000000     4.688000000     5.765000000
O    -3.050000000    -0.826000000    -7.195000000
H    -2.817000000    -1.726000000    -7.427000000
H    -2.423000000    -0.585000000    -6.513000000
O     1.141000000     6.967000000     0.615000000
H     1.632000000     7.631000000     1.099000000
H     0.797000000     6.383000000     1.290000000
O     4.544000000     1.516000000     3.336000000
H     5.140000000     1.975000000     2.744000000
H     4.503000000     2.073000000     4.114000000
O    -6.345000000    -1.058000000    -2.150000000
H    -6.679000000    -0.335000000    -2.681000000
H    -7.125000000    -1.562000000    -1.916000000
O    -3.341000000     2.892000000     1.622000000
H    -3.539000000     2.093000000     2.111000000
H    -3.396000000     3.591000000     2.273000000
O    -2.703000000    -4.403000000     2.753000000
H    -2.678000000    -3.626000000     3.312000000
H    -3.591000000    -4.746000000     2.861000000
O     5.222000000     3.249000000    -2.458000000
H     5.061000000     3.133000000    -3.394000000
H     6.070000000     3.692000000    -2.414000000
O    -4.552000000    -4.012000000    -5.719000000
H    -4.975000000    -4.749000000    -5.278000000
H    -4.329000000    -3.406000000    -5.013000000
O    -0.598000000     3.096000000    -4.880000000
H     0.246000000     2.964000000    -4.449000000
H    -0.990000000     3.836000000    -4.416000000
O    -4.463000000    -2.643000000     0.285000000
H    -3.710000000    -2.487000000    -0.285000000
H    -4.886000000    -1.787000000     0.362000000
O    -1.083000000     0.435000000     4.677000000
H    -0.264000000     0.352000000     4.189000000
H    -0.813000000     0.451000000     5.596000000
O    -5.529000000    -4.824000000     1.184000000
H    -6.424000000    -4.488000000     1.230000000
H    -5.024000000    -4.110000000     0.796000000
O    -1.207000000    -4.352000000     0.171000000
H    -1.683000000    -4.258000000     0.997000000
H    -1.712000000    -3.834000000    -0.456000000
O    -5.467000000     2.160000000    -0.312000000
H    -4.707000000     2.372000000     0.229000000
H    -5.647000000     1.239000000    -0.123000000
O     1.111000000    -2.445000000     3.692000000
H     1.798000000    -3.035000000     3.383000000
H     0.328000000    -2.718000000     3.214000000
O    -1.291000000    -4.398000000    -4.414000000
H    -1.947000000    -4.973000000    -4.019000000
H    -1.198000000    -3.677000000    -3.791000000
