161
-3058.40701
C    -0.171000000     0.075000000    -1.475000000
H    -0.259000000     0.266000000    -2.541000000
C     0.513000000     0.981000000    -0.685000000
H     0.981000000     1.870000000    -1.100000000
C     0.568000000     0.806000000     0.691000000
C     1.052000000     1.936000000     1.515000000
H     2.080000000     1.777000000     1.849000000
H     0.829000000     2.907000000     1.070000000
H     0.415000000     1.988000000     2.401000000
C    -0.014000000    -0.318000000     1.271000000
H    -0.033000000    -0.323000000     2.357000000
C    -0.622000000    -1.232000000     0.512000000
H    -1.081000000    -2.066000000     1.037000000
C    -0.678000000    -1.090000000    -0.893000000
C    -1.165000000    -2.185000000    -1.769000000
O    -1.687000000    -3.152000000    -1.307000000
O    -0.731000000    -2.244000000    -2.939000000
O    -3.716000000     4.678000000    -1.109000000
H    -4.147000000     3.910000000    -1.484000000
H    -3.182000000     4.330000000    -0.396000000
O    -4.196000000     1.865000000    -1.038000000
H    -3.480000000     1.467000000    -0.543000000
H    -4.845000000     1.167000000    -1.123000000
O     3.510000000    -0.665000000     4.475000000
H     3.845000000    -0.552000000     5.364000000
H     4.265000000    -0.496000000     3.911000000
O     0.998000000    -6.948000000    -0.871000000
H     1.123000000    -6.006000000    -0.985000000
H     0.509000000    -7.220000000    -1.649000000
O     5.077000000     1.530000000     2.220000000
H     5.823000000     1.540000000     1.621000000
H     4.519000000     2.247000000     1.920000000
O     1.059000000     4.337000000    -0.802000000
H     1.264000000     3.886000000    -1.622000000
H     1.914000000     4.546000000    -0.424000000
O    -1.964000000     4.868000000    -3.154000000
H    -2.509000000     5.006000000    -2.380000000
H    -1.178000000     5.389000000    -2.990000000
O     4.234000000     1.296000000    -1.936000000
H     3.810000000     2.154000000    -1.934000000
H     4.198000000     1.013000000    -2.849000000
O     6.700000000     2.554000000     4.529000000
H     6.169000000     1.917000000     4.051000000
H     6.072000000     3.034000000     5.068000000
O     0.996000000     6.087000000    -4.082000000
H     1.356000000     6.136000000    -3.197000000
H     0.376000000     6.815000000    -4.129000000
O    -0.830000000    -0.806000000     6.065000000
H    -1.377000000    -0.331000000     5.440000000
H    -0.041000000    -1.030000000     5.572000000
O    -2.546000000    -7.485000000    -1.469000000
H    -2.282000000    -6.629000000    -1.805000000
H    -2.956000000    -7.920000000    -2.217000000
O    -0.114000000    -4.303000000    -4.526000000
H    -0.254000000    -3.566000000    -3.932000000
H     0.332000000    -3.921000000    -5.281000000
O     3.789000000     4.769000000     0.679000000
H     4.451000000     5.254000000     1.170000000
H     4.043000000     4.878000000    -0.238000000
O    -0.074000000    -0.799000000    -5.302000000
H    -0.264000000    -1.174000000    -4.442000000
H    -0.906000000    -0.422000000    -5.589000000
O    -2.598000000     0.854000000     4.506000000
H    -2.700000000     0.744000000     3.561000000
H    -3.454000000     0.623000000     4.868000000
O    -0.706000000     2.603000000     5.610000000
H    -1.095000000     2.787000000     6.465000000
H    -1.299000000     1.968000000     5.209000000
O     0.295000000    -3.232000000    -7.055000000
H     0.184000000    -2.383000000    -6.628000000
H    -0.035000000    -3.098000000    -7.944000000
O    -0.521000000     6.226000000     0.958000000
H    -0.385000000     5.845000000     1.825000000
H    -0.260000000     5.535000000     0.349000000
O    -3.720000000    -2.681000000     2.436000000
H    -3.883000000    -3.298000000     1.723000000
H    -2.851000000    -2.916000000     2.762000000
O    -4.469000000    -5.324000000    -4.088000000
H    -3.707000000    -4.973000000    -3.627000000
H    -4.940000000    -5.828000000    -3.424000000
O     3.895000000    -0.191000000    -4.703000000
H     3.485000000     0.134000000    -5.505000000
H     3.164000000    -0.495000000    -4.166000000
O     4.736000000     3.440000000     6.104000000
H     3.878000000     3.045000000     5.946000000
H     4.633000000     3.913000000     6.930000000
O    -2.854000000     0.385000000     1.644000000
H    -3.515000000    -0.254000000     1.378000000
H    -2.019000000    -0.022000000     1.412000000
O     0.618000000    -6.130000000     2.530000000
H     0.952000000    -6.962000000     2.193000000
H     0.387000000    -5.630000000     1.748000000
O    -2.184000000    -3.642000000     5.780000000
H    -2.098000000    -2.771000000     5.391000000
H    -1.346000000    -4.068000000     5.600000000
O    -2.626000000     3.331000000     1.175000000
H    -2.814000000     2.511000000     1.632000000
H    -1.807000000     3.639000000     1.563000000
O     0.135000000    -4.357000000     0.400000000
H     0.693000000    -4.058000000    -0.318000000
H    -0.758000000    -4.208000000     0.088000000
O    -1.496000000    -4.025000000     2.879000000
H    -1.771000000    -4.941000000     2.932000000
H    -0.718000000    -4.041000000     2.323000000
O    -4.386000000    -3.008000000    -1.837000000
H    -4.741000000    -2.711000000    -0.999000000
H    -3.458000000    -3.164000000    -1.662000000
O    -5.445000000    -1.868000000     4.263000000
H    -4.813000000    -1.879000000     3.545000000
H    -5.354000000    -0.997000000     4.650000000
O     2.004000000     3.280000000     5.732000000
H     1.053000000     3.264000000     5.625000000
H     2.332000000     3.636000000     4.907000000
O     2.136000000    -1.841000000    -3.506000000
H     1.215000000    -2.076000000    -3.621000000
H     2.265000000    -1.834000000    -2.558000000
O     1.481000000     3.576000000    -3.323000000
H     1.862000000     3.077000000    -4.045000000
H     1.260000000     4.424000000    -3.709000000
O     2.439000000     1.242000000     7.625000000
H     2.304000000     1.790000000     6.853000000
H     1.890000000     1.639000000     8.301000000
O     1.168000000    -1.837000000     4.469000000
H     1.974000000    -1.322000000     4.502000000
H     1.462000000    -2.745000000     4.533000000
O    -3.330000000     2.152000000    -3.726000000
H    -3.174000000     3.096000000    -3.692000000
H    -3.422000000     1.892000000    -2.809000000
O    -4.015000000    -4.813000000     1.059000000
H    -3.673000000    -5.208000000     0.257000000
H    -3.897000000    -5.487000000     1.728000000
O    -0.655000000     4.733000000     3.120000000
H     0.063000000     4.543000000     3.723000000
H    -1.447000000     4.617000000     3.645000000
O     2.158000000     0.207000000    -6.823000000
H     1.842000000     0.586000000    -7.644000000
H     1.370000000     0.100000000    -6.290000000
O    -1.866000000    -5.394000000    -2.913000000
H    -1.778000000    -4.688000000    -2.273000000
H    -1.324000000    -5.117000000    -3.652000000
O    -2.643000000    -0.113000000    -5.897000000
H    -3.119000000    -0.889000000    -5.601000000
H    -2.950000000     0.590000000    -5.324000000
O     2.046000000    -4.385000000     4.225000000
H     1.492000000    -4.985000000     3.724000000
H     2.925000000    -4.521000000     3.872000000
O     2.505000000     6.859000000     1.843000000
H     2.294000000     7.531000000     1.194000000
H     2.564000000     6.049000000     1.337000000
O     2.890000000     4.581000000     3.448000000
H     2.556000000     5.393000000     3.067000000
H     3.528000000     4.262000000     2.810000000
O    -3.255000000    -1.983000000    -4.259000000
H    -2.520000000    -2.439000000    -3.848000000
H    -3.974000000    -2.078000000    -3.635000000
O     2.249000000    -4.601000000    -2.039000000
H     2.235000000    -4.497000000    -2.990000000
H     2.735000000    -3.840000000    -1.722000000
O     2.439000000    -2.074000000    -0.516000000
H     3.298000000    -1.903000000    -0.131000000
H     1.845000000    -1.488000000    -0.045000000
