161
-3051.37215
C     0.179000000     0.846000000    -1.285000000
H     0.429000000     1.603000000    -2.023000000
C    -0.656000000     1.126000000    -0.188000000
H    -1.215000000     2.056000000    -0.251000000
C    -0.860000000     0.216000000     0.814000000
C    -1.884000000     0.339000000     1.947000000
H    -2.878000000    -0.099000000     1.828000000
H    -1.423000000    -0.001000000     2.876000000
H    -2.112000000     1.403000000     2.044000000
C    -0.119000000    -0.950000000     0.855000000
H    -0.145000000    -1.607000000     1.720000000
C     0.810000000    -1.227000000    -0.126000000
H     1.558000000    -2.006000000     0.004000000
C     1.000000000    -0.284000000    -1.185000000
C     2.110000000    -0.484000000    -2.120000000
O     3.105000000    -1.089000000    -1.745000000
O     2.095000000     0.165000000    -3.165000000
O     0.634000000     2.140000000     4.473000000
H     1.237000000     1.897000000     3.770000000
H    -0.161000000     1.639000000     4.290000000
O     1.154000000     1.839000000     6.979000000
H     0.788000000     2.047000000     6.119000000
H     0.411000000     1.903000000     7.578000000
O    -2.374000000     4.035000000    -3.724000000
H    -2.307000000     3.088000000    -3.852000000
H    -2.842000000     4.131000000    -2.895000000
O     7.742000000     0.087000000    -1.836000000
H     7.278000000     0.696000000    -2.411000000
H     7.150000000    -0.041000000    -1.095000000
O     6.513000000     2.203000000    -3.224000000
H     5.567000000     2.057000000    -3.198000000
H     6.628000000     2.915000000    -3.854000000
O     3.549000000    -2.814000000    -3.983000000
H     3.130000000    -2.459000000    -3.200000000
H     4.430000000    -2.440000000    -3.974000000
O    -5.096000000     4.448000000     5.243000000
H    -5.900000000     4.055000000     5.585000000
H    -4.551000000     3.701000000     4.997000000
O    -1.888000000    -2.059000000     7.782000000
H    -2.120000000    -1.158000000     8.005000000
H    -1.793000000    -2.054000000     6.830000000
O    -1.767000000     0.503000000     5.583000000
H    -2.623000000     0.434000000     5.160000000
H    -1.962000000     0.805000000     6.471000000
O     3.699000000    -0.308000000     0.544000000
H     4.648000000    -0.420000000     0.601000000
H     3.469000000    -0.646000000    -0.321000000
O    -2.650000000    -1.076000000    -5.656000000
H    -2.553000000    -1.028000000    -6.607000000
H    -1.791000000    -0.827000000    -5.315000000
O    -0.435000000    -0.030000000    -4.696000000
H     0.163000000     0.651000000    -4.386000000
H     0.137000000    -0.759000000    -4.936000000
O     3.996000000    -2.349000000    -6.924000000
H     3.536000000    -1.799000000    -6.289000000
H     4.756000000    -1.830000000    -7.185000000
O     1.927000000     1.942000000     1.343000000
H     1.123000000     1.767000000     0.854000000
H     2.579000000     1.363000000     0.948000000
O    -4.494000000     0.343000000     5.109000000
H    -4.995000000     0.336000000     5.925000000
H    -4.371000000    -0.581000000     4.896000000
O     6.543000000    -0.226000000    -5.527000000
H     6.632000000    -0.954000000    -4.911000000
H     5.602000000    -0.057000000    -5.563000000
O    -6.070000000    -0.401000000     2.697000000
H    -5.897000000    -1.000000000     1.970000000
H    -5.510000000    -0.716000000     3.406000000
O    -5.613000000     0.338000000    -1.578000000
H    -5.866000000    -0.299000000    -2.246000000
H    -4.864000000    -0.063000000    -1.137000000
O     3.737000000     2.231000000    -3.050000000
H     3.360000000     1.354000000    -3.124000000
H     3.532000000     2.651000000    -3.886000000
O     2.485000000    -1.555000000     2.667000000
H     2.907000000    -1.104000000     1.935000000
H     2.800000000    -1.095000000     3.445000000
O     6.170000000    -2.281000000    -3.589000000
H     6.260000000    -3.232000000    -3.638000000
H     6.302000000    -2.076000000    -2.663000000
O    -3.167000000    -1.157000000    -0.935000000
H    -2.680000000    -1.374000000    -0.140000000
H    -3.014000000    -1.898000000    -1.521000000
O    -4.268000000     2.133000000     3.126000000
H    -4.900000000     1.549000000     2.707000000
H    -4.219000000     1.824000000     4.030000000
O    -6.016000000    -2.296000000     0.598000000
H    -6.135000000    -3.217000000     0.831000000
H    -5.561000000    -2.319000000    -0.244000000
O    -4.386000000    -2.175000000     4.286000000
H    -4.590000000    -2.881000000     4.899000000
H    -3.916000000    -2.606000000     3.572000000
O    -8.420000000     0.691000000     2.453000000
H    -7.485000000     0.524000000     2.577000000
H    -8.669000000     0.127000000     1.721000000
O    -2.647000000     1.092000000    -3.040000000
H    -2.608000000     0.439000000    -2.341000000
H    -2.027000000     0.775000000    -3.698000000
O    -1.254000000    -4.125000000     0.245000000
H    -1.216000000    -5.027000000     0.563000000
H    -0.366000000    -3.942000000    -0.061000000
O     2.497000000     4.744000000     1.309000000
H     2.493000000     5.013000000     2.228000000
H     2.255000000     3.818000000     1.330000000
O     3.312000000     2.559000000    -5.867000000
H     2.547000000     2.879000000    -6.345000000
H     4.026000000     2.596000000    -6.504000000
O     1.719000000    -5.276000000     0.103000000
H     1.931000000    -5.744000000    -0.705000000
H     2.452000000    -4.674000000     0.230000000
O    -2.735000000    -2.912000000    -2.920000000
H    -1.797000000    -3.024000000    -2.771000000
H    -2.790000000    -2.399000000    -3.726000000
O     2.399000000    -4.776000000     5.573000000
H     3.230000000    -4.320000000     5.704000000
H     1.935000000    -4.246000000     4.925000000
O    -0.831000000     6.014000000     2.761000000
H    -0.999000000     5.085000000     2.919000000
H    -1.497000000     6.274000000     2.125000000
O    -0.258000000     5.140000000    -4.941000000
H    -0.933000000     4.879000000    -4.314000000
H    -0.705000000     5.742000000    -5.536000000
O     3.696000000    -0.013000000    -5.303000000
H     3.334000000     0.849000000    -5.506000000
H     3.207000000    -0.302000000    -4.532000000
O    -2.099000000    -3.413000000     3.023000000
H    -2.643000000    -4.191000000     2.898000000
H    -1.725000000    -3.241000000     2.159000000
O    -1.107000000    -2.171000000     5.043000000
H    -1.260000000    -1.228000000     4.989000000
H    -1.637000000    -2.541000000     4.337000000
O    -3.518000000     4.333000000    -1.375000000
H    -3.567000000     4.102000000    -0.447000000
H    -3.481000000     5.289000000    -1.383000000
O    -0.224000000    -4.361000000    -3.989000000
H    -0.856000000    -4.767000000    -4.582000000
H     0.107000000    -5.085000000    -3.459000000
O     0.737000000    -6.191000000     2.623000000
H     1.101000000    -6.334000000     1.750000000
H     0.747000000    -5.240000000     2.735000000
O     6.475000000    -0.729000000     0.500000000
H     6.944000000    -1.519000000     0.231000000
H     6.873000000    -0.487000000     1.336000000
O     4.611000000     4.343000000    -0.346000000
H     4.140000000     4.031000000    -1.118000000
H     3.932000000     4.459000000     0.319000000
O     3.149000000    -5.715000000    -2.533000000
H     3.396000000    -4.861000000    -2.177000000
H     3.081000000    -5.570000000    -3.477000000
O     4.020000000    -3.513000000    -0.570000000
H     4.566000000    -3.308000000     0.189000000
H     3.537000000    -2.705000000    -0.743000000
O     0.905000000    -3.769000000     3.657000000
H     0.197000000    -3.383000000     4.173000000
H     1.415000000    -3.019000000     3.352000000
O     1.040000000    -2.439000000    -5.523000000
H     0.525000000    -3.040000000    -4.985000000
H     1.940000000    -2.555000000    -5.218000000
O    -3.131000000     3.901000000     1.396000000
H    -3.550000000     3.053000000     1.546000000
H    -3.624000000     4.512000000     1.943000000
