161
-3064.55694
C     0.691000000     1.013000000    -0.845000000
H     1.093000000     1.756000000    -1.529000000
C    -0.370000000     1.259000000    -0.048000000
H    -0.893000000     2.212000000    -0.060000000
C    -0.969000000     0.264000000     0.731000000
C    -2.144000000     0.520000000     1.667000000
H    -3.038000000     0.369000000     1.059000000
H    -2.047000000    -0.264000000     2.420000000
H    -2.142000000     1.498000000     2.154000000
C    -0.488000000    -1.055000000     0.579000000
H    -0.990000000    -1.849000000     1.126000000
C     0.659000000    -1.213000000    -0.149000000
H     0.991000000    -2.228000000    -0.352000000
C     1.247000000    -0.233000000    -0.846000000
C     2.487000000    -0.580000000    -1.694000000
O     2.941000000    -1.688000000    -1.694000000
O     2.976000000     0.223000000    -2.517000000
O     2.445000000     4.133000000    -3.017000000
H     1.629000000     4.199000000    -3.512000000
H     2.438000000     4.896000000    -2.439000000
O    -2.333000000    -2.974000000    -4.180000000
H    -2.302000000    -2.023000000    -4.282000000
H    -1.444000000    -3.216000000    -3.920000000
O    -4.213000000    -0.600000000    -1.884000000
H    -3.905000000    -1.232000000    -1.235000000
H    -4.520000000    -1.136000000    -2.615000000
O     4.080000000    -4.988000000    -5.569000000
H     3.951000000    -4.069000000    -5.333000000
H     3.421000000    -5.156000000    -6.242000000
O     6.467000000     1.800000000    -0.410000000
H     6.916000000     1.474000000     0.370000000
H     6.482000000     1.063000000    -1.020000000
O     1.277000000     2.180000000     4.354000000
H     1.986000000     2.007000000     3.735000000
H     0.658000000     2.721000000     3.864000000
O    -0.688000000    -1.073000000     7.021000000
H    -1.573000000    -0.810000000     7.274000000
H    -0.600000000    -0.777000000     6.115000000
O     6.321000000    -2.092000000     0.671000000
H     6.466000000    -2.843000000     0.094000000
H     6.062000000    -1.384000000     0.081000000
O    -0.419000000     2.377000000    -6.072000000
H    -0.336000000     1.674000000    -5.427000000
H    -1.195000000     2.144000000    -6.581000000
O     1.960000000    -1.397000000     3.029000000
H     1.944000000    -1.203000000     2.092000000
H     2.478000000    -0.688000000     3.411000000
O    -1.995000000     4.459000000    -4.618000000
H    -2.012000000     3.627000000    -4.146000000
H    -1.539000000     4.261000000    -5.436000000
O     3.994000000    -2.359000000    -4.167000000
H     4.907000000    -2.101000000    -4.043000000
H     3.558000000    -2.089000000    -3.359000000
O    -0.893000000    -5.049000000    -0.113000000
H    -0.704000000    -4.411000000    -0.801000000
H    -1.630000000    -4.672000000     0.367000000
O    -5.521000000    -2.552000000     4.239000000
H    -4.606000000    -2.807000000     4.117000000
H    -5.476000000    -1.678000000     4.625000000
O    -2.671000000    -2.883000000     4.308000000
H    -1.897000000    -3.237000000     4.746000000
H    -2.768000000    -2.002000000     4.669000000
O    -1.119000000     4.649000000    -0.899000000
H    -1.307000000     4.936000000    -0.005000000
H    -1.962000000     4.342000000    -1.233000000
O    -4.781000000     1.921000000     4.078000000
H    -4.771000000     2.567000000     3.372000000
H    -5.323000000     2.320000000     4.759000000
O    -1.405000000     2.494000000    -2.979000000
H    -0.940000000     1.812000000    -3.463000000
H    -0.910000000     2.590000000    -2.165000000
O     4.234000000     4.841000000    -0.209000000
H     3.849000000     3.970000000    -0.303000000
H     5.042000000     4.802000000    -0.720000000
O     0.510000000     4.015000000     2.293000000
H     0.719000000     4.025000000     1.359000000
H    -0.200000000     4.651000000     2.386000000
O     1.504000000    -3.113000000    -5.084000000
H     2.291000000    -2.686000000    -4.748000000
H     1.198000000    -2.535000000    -5.783000000
O     6.338000000     2.846000000    -4.411000000
H     5.409000000     2.624000000    -4.349000000
H     6.399000000     3.409000000    -5.183000000
O     5.344000000    -1.017000000     2.788000000
H     5.617000000    -1.253000000     1.901000000
H     5.578000000    -1.777000000     3.321000000
O     3.824000000     2.133000000    -4.379000000
H     3.259000000     2.796000000    -3.982000000
H     3.614000000     1.327000000    -3.908000000
O     3.206000000    -4.375000000    -1.260000000
H     2.620000000    -4.423000000    -0.504000000
H     3.057000000    -3.502000000    -1.623000000
O    -6.982000000     0.822000000    -0.333000000
H    -6.691000000     0.432000000     0.491000000
H    -6.357000000     0.503000000    -0.984000000
O     0.977000000     4.827000000    -5.181000000
H     0.336000000     5.452000000    -5.521000000
H     0.582000000     3.970000000    -5.341000000
O    -1.870000000     5.375000000     1.463000000
H    -2.793000000     5.160000000     1.592000000
H    -1.834000000     6.329000000     1.536000000
O     0.798000000     6.272000000    -1.933000000
H     0.096000000     5.683000000    -1.656000000
H     0.392000000     6.834000000    -2.593000000
O    -0.655000000     2.694000000     6.692000000
H    -1.343000000     3.333000000     6.875000000
H    -0.757000000     2.492000000     5.762000000
O     3.629000000    -5.015000000     3.417000000
H     3.779000000    -4.615000000     4.273000000
H     3.294000000    -4.301000000     2.874000000
O     1.597000000    -4.818000000     1.071000000
H     0.734000000    -5.013000000     0.705000000
H     2.110000000    -5.610000000     0.909000000
O    -4.395000000    -3.056000000    -0.095000000
H    -5.083000000    -3.707000000    -0.233000000
H    -3.773000000    -3.486000000     0.492000000
O     6.318000000     0.208000000    -5.444000000
H     5.680000000     0.742000000    -4.970000000
H     7.135000000     0.704000000    -5.385000000
O     0.038000000    -4.135000000    -2.837000000
H     0.730000000    -3.618000000    -3.250000000
H     0.458000000    -4.966000000    -2.617000000
O     5.667000000    -0.315000000    -1.686000000
H     6.239000000    -0.783000000    -2.295000000
H     4.781000000    -0.509000000    -1.993000000
O     0.243000000    -3.247000000     3.725000000
H     0.189000000    -3.970000000     3.099000000
H     0.882000000    -2.646000000     3.342000000
O    -2.793000000    -4.267000000     1.809000000
H    -3.192000000    -5.055000000     2.177000000
H    -2.923000000    -3.597000000     2.481000000
O    -0.666000000    -0.186000000     4.529000000
H    -0.133000000     0.584000000     4.328000000
H    -0.117000000    -0.929000000     4.278000000
O    -3.366000000    -0.319000000     5.010000000
H    -3.858000000     0.472000000     4.791000000
H    -2.448000000    -0.051000000     4.960000000
O     6.288000000    -4.724000000    -0.615000000
H     5.454000000    -4.718000000    -1.086000000
H     6.101000000    -5.196000000     0.197000000
O     3.264000000     0.909000000     2.624000000
H     3.362000000     1.295000000     1.753000000
H     3.795000000     0.114000000     2.595000000
O     4.472000000    -6.285000000    -3.080000000
H     4.326000000    -5.946000000    -3.964000000
H     4.287000000    -5.542000000    -2.505000000
O     0.618000000     0.394000000    -4.011000000
H     0.716000000    -0.352000000    -4.603000000
H     1.358000000     0.320000000    -3.408000000
O     3.738000000     2.145000000    -0.518000000
H     4.667000000     1.943000000    -0.406000000
H     3.410000000     1.454000000    -1.094000000
O    -4.626000000     4.409000000     1.418000000
H    -5.353000000     4.951000000     1.722000000
H    -4.899000000     4.104000000     0.553000000
O    -3.974000000     2.229000000    -2.056000000
H    -3.918000000     1.287000000    -1.896000000
H    -3.098000000     2.473000000    -2.354000000
O    -5.724000000    -1.138000000     1.514000000
H    -5.423000000    -1.566000000     0.713000000
H    -5.309000000    -1.633000000     2.221000000
