161
-3040.80844
C     0.823000000     0.983000000    -0.680000000
H     1.369000000     1.809000000    -1.128000000
C     0.179000000     1.270000000     0.529000000
H     0.144000000     2.217000000     1.061000000
C    -0.567000000     0.224000000     1.107000000
C    -1.477000000     0.418000000     2.243000000
H    -0.927000000     0.182000000     3.156000000
H    -1.909000000     1.420000000     2.278000000
H    -2.279000000    -0.304000000     2.075000000
C    -0.514000000    -1.025000000     0.503000000
H    -1.093000000    -1.842000000     0.925000000
C     0.078000000    -1.293000000    -0.702000000
H     0.015000000    -2.293000000    -1.123000000
C     0.788000000    -0.249000000    -1.367000000
C     1.628000000    -0.451000000    -2.575000000
O     1.449000000    -1.515000000    -3.167000000
O     2.299000000     0.451000000    -3.129000000
O     1.570000000     4.605000000    -2.114000000
H     1.841000000     4.031000000    -2.831000000
H     1.305000000     5.418000000    -2.544000000
O    -3.885000000    -4.863000000    -2.155000000
H    -3.399000000    -5.165000000    -2.922000000
H    -3.223000000    -4.455000000    -1.597000000
O    -5.231000000    -3.264000000     0.915000000
H    -4.300000000    -3.423000000     0.757000000
H    -5.439000000    -2.502000000     0.374000000
O     6.838000000     2.994000000    -2.704000000
H     6.343000000     3.173000000    -3.504000000
H     6.169000000     2.868000000    -2.032000000
O     5.487000000    -5.306000000    -4.439000000
H     5.117000000    -4.591000000    -3.922000000
H     6.430000000    -5.251000000    -4.282000000
O     1.342000000     3.017000000     5.587000000
H     1.479000000     2.475000000     4.810000000
H     0.408000000     3.227000000     5.571000000
O    -0.785000000    -3.990000000     2.888000000
H    -0.273000000    -4.743000000     2.593000000
H    -1.457000000    -4.365000000     3.458000000
O     2.274000000     0.359000000    -7.865000000
H     2.408000000    -0.215000000    -7.111000000
H     1.350000000     0.248000000    -8.089000000
O     1.976000000     2.728000000    -4.422000000
H     1.922000000     2.021000000    -3.778000000
H     1.785000000     2.305000000    -5.259000000
O    -1.569000000     2.460000000    -4.534000000
H    -1.994000000     1.889000000    -3.894000000
H    -1.024000000     1.871000000    -5.056000000
O     1.755000000    -2.832000000     4.504000000
H     0.905000000    -2.712000000     4.081000000
H     2.370000000    -2.355000000     3.947000000
O    -5.856000000     1.892000000     2.386000000
H    -5.533000000     0.994000000     2.461000000
H    -5.169000000     2.428000000     2.781000000
O     4.075000000    -3.273000000    -3.529000000
H     4.662000000    -2.570000000    -3.808000000
H     3.229000000    -2.843000000    -3.407000000
O    -1.537000000    -5.419000000    -3.611000000
H    -1.345000000    -6.352000000    -3.705000000
H    -0.700000000    -5.025000000    -3.364000000
O    -3.184000000    -1.849000000     6.575000000
H    -3.717000000    -1.055000000     6.614000000
H    -2.378000000    -1.619000000     7.036000000
O    -0.480000000    -3.902000000    -6.885000000
H    -0.667000000    -3.055000000    -6.479000000
H     0.381000000    -4.145000000    -6.545000000
O    -3.625000000     2.936000000     3.553000000
H    -3.004000000     2.815000000     4.272000000
H    -3.847000000     3.866000000     3.584000000
O    -2.728000000    -4.170000000     0.603000000
H    -2.214000000    -4.921000000     0.309000000
H    -2.096000000    -3.607000000     1.051000000
O    -2.584000000     0.938000000    -2.455000000
H    -2.687000000     0.149000000    -2.987000000
H    -1.873000000     0.727000000    -1.851000000
O    -0.548000000     0.456000000    -6.128000000
H    -0.483000000    -0.328000000    -5.583000000
H    -1.112000000     0.196000000    -6.856000000
O     5.264000000     1.720000000     0.233000000
H     4.512000000     1.890000000    -0.334000000
H     5.479000000     0.801000000     0.076000000
O    -0.518000000     5.369000000     4.897000000
H    -0.706000000     5.425000000     3.960000000
H    -1.334000000     5.635000000     5.322000000
O     2.441000000    -6.383000000    -4.303000000
H     1.897000000    -5.599000000    -4.240000000
H     3.119000000    -6.258000000    -3.639000000
O    -2.762000000    -2.147000000    -3.674000000
H    -3.407000000    -1.962000000    -4.357000000
H    -3.277000000    -2.498000000    -2.947000000
O    -4.517000000     5.337000000     2.601000000
H    -5.291000000     5.897000000     2.654000000
H    -4.455000000     5.102000000     1.675000000
O     4.778000000     1.066000000    -3.624000000
H     4.576000000     1.921000000    -4.005000000
H     3.934000000     0.735000000    -3.317000000
O     2.226000000    -4.142000000    -5.877000000
H     2.599000000    -4.522000000    -6.672000000
H     2.986000000    -3.878000000    -5.358000000
O     3.825000000    -2.499000000     1.174000000
H     3.678000000    -1.827000000     1.840000000
H     4.481000000    -2.118000000     0.590000000
O    -0.693000000     4.833000000    -4.693000000
H    -0.924000000     3.904000000    -4.719000000
H    -1.285000000     5.208000000    -4.040000000
O    -2.451000000     2.956000000     6.102000000
H    -3.406000000     2.970000000     6.169000000
H    -2.159000000     2.572000000     6.929000000
O    -0.663000000     5.300000000     1.631000000
H    -1.149000000     4.762000000     1.006000000
H    -1.111000000     6.145000000     1.618000000
O     0.557000000    -6.147000000     1.349000000
H     0.821000000    -6.915000000     0.842000000
H     0.836000000    -5.401000000     0.819000000
O    -3.356000000    -2.387000000     3.813000000
H    -3.227000000    -2.214000000     4.746000000
H    -2.496000000    -2.668000000     3.501000000
O     5.947000000    -1.306000000    -4.132000000
H     6.039000000    -1.448000000    -5.074000000
H     5.544000000    -0.441000000    -4.058000000
O     1.040000000    -4.185000000    -2.899000000
H     1.318000000    -4.440000000    -2.019000000
H     1.095000000    -3.230000000    -2.900000000
O     5.761000000    -0.751000000    -0.808000000
H     6.586000000    -0.296000000    -0.979000000
H     5.419000000    -0.960000000    -1.678000000
O    -4.128000000    -5.369000000     2.875000000
H    -4.063000000    -4.866000000     2.064000000
H    -4.906000000    -5.023000000     3.311000000
O    -6.325000000    -0.536000000    -0.808000000
H    -6.250000000    -0.625000000    -1.758000000
H    -5.636000000     0.085000000    -0.570000000
O     1.904000000     4.493000000     0.761000000
H     1.783000000     4.428000000    -0.187000000
H     1.023000000     4.639000000     1.105000000
O     3.641000000    -1.092000000     3.537000000
H     3.541000000    -0.140000000     3.520000000
H     4.288000000    -1.253000000     4.224000000
O     3.640000000     5.190000000     2.507000000
H     3.062000000     4.927000000     1.790000000
H     3.045000000     5.462000000     3.206000000
O     2.280000000    -4.328000000    -0.237000000
H     2.959000000    -4.981000000    -0.407000000
H     2.713000000    -3.668000000     0.304000000
O    -0.396000000    -1.959000000    -4.918000000
H     0.369000000    -1.962000000    -4.343000000
H    -1.144000000    -1.994000000    -4.321000000
O     2.513000000     2.382000000     2.910000000
H     2.325000000     2.151000000     2.001000000
H     3.151000000     3.092000000     2.850000000
O     2.473000000    -1.295000000    -5.791000000
H     2.237000000    -2.218000000    -5.699000000
H     2.266000000    -0.909000000    -4.940000000
O     1.964000000     5.210000000    -5.639000000
H     1.040000000     5.134000000    -5.400000000
H     2.419000000     4.633000000    -5.026000000
O    -4.308000000     0.906000000    -0.281000000
H    -3.561000000     1.096000000     0.286000000
H    -4.198000000     1.493000000    -1.029000000
O    -5.627000000    -0.788000000     2.805000000
H    -6.010000000    -1.635000000     3.033000000
H    -4.694000000    -0.888000000     2.997000000
