161
-3046.52905
C     0.856000000     1.174000000    -0.005000000
H     1.568000000     1.988000000     0.104000000
C    -0.140000000     0.967000000     0.954000000
H    -0.172000000     1.642000000     1.806000000
C    -0.952000000    -0.153000000     0.837000000
C    -1.776000000    -0.702000000     1.956000000
H    -2.576000000    -1.393000000     1.682000000
H    -1.102000000    -1.386000000     2.475000000
H    -2.182000000     0.083000000     2.598000000
C    -0.864000000    -0.959000000    -0.291000000
H    -1.483000000    -1.846000000    -0.401000000
C     0.136000000    -0.732000000    -1.259000000
H     0.152000000    -1.368000000    -2.141000000
C     1.044000000     0.364000000    -1.147000000
C     2.184000000     0.685000000    -2.136000000
O     2.505000000    -0.078000000    -3.022000000
O     2.794000000     1.718000000    -2.004000000
O    -0.874000000     6.103000000     0.677000000
H    -1.368000000     5.417000000     0.228000000
H    -0.234000000     6.400000000     0.029000000
O    -3.364000000    -3.815000000    -0.891000000
H    -2.662000000    -4.386000000    -1.205000000
H    -3.738000000    -3.436000000    -1.686000000
O     5.843000000    -1.573000000    -0.547000000
H     6.792000000    -1.650000000    -0.644000000
H     5.706000000    -0.680000000    -0.231000000
O     4.932000000     1.452000000    -0.512000000
H     5.304000000     2.298000000    -0.758000000
H     4.064000000     1.445000000    -0.916000000
O     1.359000000    -3.306000000     3.658000000
H     1.447000000    -3.001000000     2.755000000
H     1.846000000    -4.130000000     3.682000000
O     3.350000000     5.621000000    -3.194000000
H     3.715000000     6.261000000    -3.804000000
H     2.854000000     5.018000000    -3.748000000
O    -3.712000000     4.430000000     1.907000000
H    -4.304000000     3.725000000     2.169000000
H    -3.288000000     4.104000000     1.113000000
O     5.087000000     1.325000000    -6.567000000
H     4.799000000     1.864000000    -5.830000000
H     4.643000000     0.487000000    -6.439000000
O     0.942000000     3.471000000    -3.846000000
H     1.558000000     3.170000000    -3.178000000
H     0.361000000     2.724000000    -3.989000000
O     4.770000000    -3.119000000    -5.449000000
H     4.697000000    -3.583000000    -4.614000000
H     4.548000000    -3.777000000    -6.108000000
O    -3.052000000     2.283000000    -3.260000000
H    -3.230000000     1.853000000    -4.097000000
H    -2.163000000     2.008000000    -3.034000000
O     2.670000000    -1.498000000     5.675000000
H     2.258000000    -2.344000000     5.497000000
H     2.157000000    -0.870000000     5.166000000
O     5.922000000     3.871000000    -5.549000000
H     5.233000000     4.241000000    -6.100000000
H     5.511000000     3.766000000    -4.691000000
O    -4.378000000    -0.291000000    -0.018000000
H    -4.296000000    -0.671000000     0.857000000
H    -3.489000000    -0.307000000    -0.371000000
O     3.740000000    -2.115000000    -1.932000000
H     4.509000000    -1.884000000    -1.411000000
H     3.362000000    -1.273000000    -2.186000000
O    -0.349000000    -3.818000000    -3.181000000
H     0.186000000    -4.436000000    -3.680000000
H    -0.773000000    -4.355000000    -2.511000000
O    -1.482000000    -0.722000000     5.941000000
H    -1.631000000    -0.505000000     6.861000000
H    -0.992000000     0.024000000     5.595000000
O    -0.819000000    -0.266000000    -6.638000000
H    -0.120000000    -0.635000000    -6.099000000
H    -1.255000000    -1.028000000    -7.020000000
O    -4.323000000    -3.770000000     3.688000000
H    -3.749000000    -4.460000000     3.354000000
H    -3.834000000    -3.383000000     4.414000000
O    -2.218000000    -1.662000000    -3.436000000
H    -2.307000000    -1.453000000    -4.365000000
H    -1.580000000    -2.376000000    -3.411000000
O    -0.538000000     1.337000000    -4.073000000
H    -0.276000000     0.487000000    -3.721000000
H    -0.710000000     1.170000000    -5.000000000
O     2.798000000     5.136000000     1.751000000
H     2.486000000     4.399000000     2.275000000
H     2.936000000     4.768000000     0.878000000
O     6.807000000     3.032000000    -2.502000000
H     6.626000000     3.943000000    -2.273000000
H     7.401000000     2.725000000    -1.817000000
O    -4.675000000    -3.042000000    -3.157000000
H    -3.943000000    -3.035000000    -3.774000000
H    -5.118000000    -2.205000000    -3.302000000
O     3.249000000     3.881000000    -0.448000000
H     3.482000000     4.527000000    -1.115000000
H     3.039000000     3.090000000    -0.944000000
O     6.840000000     0.640000000    -4.086000000
H     6.697000000     1.374000000    -3.489000000
H     6.130000000     0.708000000    -4.725000000
O     1.416000000    -3.150000000     0.752000000
H     0.921000000    -2.548000000     0.196000000
H     2.332000000    -2.917000000     0.601000000
O    -2.447000000     4.425000000    -0.810000000
H    -3.207000000     4.125000000    -1.308000000
H    -1.765000000     4.557000000    -1.469000000
O    -5.740000000    -4.291000000     0.673000000
H    -6.047000000    -3.415000000     0.906000000
H    -4.835000000    -4.160000000     0.390000000
O    -1.122000000     2.090000000     4.472000000
H    -1.091000000     2.730000000     3.761000000
H    -1.167000000     2.619000000     5.269000000
O    -0.206000000    -4.214000000     5.532000000
H     0.139000000    -3.812000000     4.735000000
H    -1.156000000    -4.144000000     5.444000000
O    -1.345000000    -5.721000000    -1.392000000
H    -1.654000000    -6.612000000    -1.552000000
H    -0.602000000    -5.828000000    -0.798000000
O    -1.747000000    -5.386000000     2.244000000
H    -1.329000000    -6.232000000     2.407000000
H    -1.106000000    -4.898000000     1.727000000
O    -6.223000000    -2.272000000     2.494000000
H    -5.479000000    -2.793000000     2.794000000
H    -6.578000000    -1.880000000     3.292000000
O     3.614000000     2.566000000    -4.384000000
H     2.862000000     2.045000000    -4.666000000
H     3.713000000     2.360000000    -3.454000000
O     3.714000000    -4.387000000    -3.192000000
H     3.490000000    -3.589000000    -2.713000000
H     3.387000000    -5.098000000    -2.641000000
O    -2.861000000    -3.056000000     5.919000000
H    -3.379000000    -3.019000000     6.722000000
H    -2.398000000    -2.219000000     5.894000000
O     5.207000000     3.316000000     2.730000000
H     4.325000000     3.129000000     3.051000000
H     5.323000000     2.721000000     1.989000000
O    -0.673000000     4.241000000     2.835000000
H    -0.362000000     4.909000000     2.224000000
H    -1.609000000     4.419000000     2.927000000
O    -4.602000000    -0.291000000    -3.916000000
H    -3.823000000    -0.414000000    -3.374000000
H    -5.160000000     0.293000000    -3.402000000
O     1.265000000     0.354000000     4.274000000
H     0.370000000     0.545000000     3.991000000
H     1.818000000     0.860000000     3.679000000
O     0.868000000    -5.614000000     0.403000000
H     1.486000000    -5.749000000    -0.315000000
H     1.091000000    -4.752000000     0.753000000
O     0.524000000    -1.475000000    -4.567000000
H     1.400000000    -1.366000000    -4.198000000
H     0.306000000    -2.392000000    -4.400000000
O     1.805000000     3.161000000     3.414000000
H     0.907000000     3.491000000     3.396000000
H     2.249000000     3.708000000     4.061000000
O     3.809000000    -0.658000000    -5.202000000
H     3.970000000    -1.593000000    -5.329000000
H     3.341000000    -0.607000000    -4.368000000
O    -4.818000000     1.788000000     2.843000000
H    -5.577000000     1.253000000     2.609000000
H    -4.511000000     1.420000000     3.671000000
O     2.028000000    -1.462000000    -7.507000000
H     1.427000000    -1.308000000    -8.236000000
H     2.018000000    -0.643000000    -7.011000000
O    -4.469000000     0.348000000     5.140000000
H    -4.779000000    -0.157000000     5.891000000
H    -3.524000000     0.196000000     5.123000000
