161
-3055.01289
C     1.258000000     0.076000000    -0.793000000
H     2.150000000     0.245000000    -1.391000000
C     0.056000000     0.642000000    -1.119000000
H    -0.072000000     1.315000000    -1.963000000
C    -1.051000000     0.548000000    -0.288000000
C    -2.372000000     1.301000000    -0.589000000
H    -3.173000000     0.577000000    -0.756000000
H    -2.760000000     1.865000000     0.262000000
H    -2.250000000     1.933000000    -1.471000000
C    -0.970000000    -0.278000000     0.801000000
H    -1.803000000    -0.450000000     1.477000000
C     0.225000000    -0.900000000     1.174000000
H     0.174000000    -1.566000000     2.031000000
C     1.390000000    -0.688000000     0.371000000
C     2.730000000    -1.338000000     0.685000000
O     2.830000000    -2.134000000     1.651000000
O     3.635000000    -1.148000000    -0.081000000
O    -2.747000000    -1.594000000    -2.153000000
H    -3.512000000    -1.021000000    -2.093000000
H    -2.138000000    -1.249000000    -1.500000000
O     2.028000000     3.169000000    -2.715000000
H     2.817000000     2.817000000    -2.303000000
H     2.105000000     2.913000000    -3.635000000
O    -2.482000000     5.624000000    -2.265000000
H    -3.072000000     5.844000000    -1.545000000
H    -3.049000000     5.579000000    -3.035000000
O     2.931000000     5.610000000    -1.800000000
H     2.717000000     4.840000000    -2.327000000
H     2.156000000     6.167000000    -1.863000000
O    -4.394000000     0.704000000     2.559000000
H    -3.657000000     0.236000000     2.952000000
H    -4.324000000     1.594000000     2.904000000
O    -2.373000000    -0.155000000     4.185000000
H    -1.988000000    -1.031000000     4.153000000
H    -1.620000000     0.437000000     4.190000000
O     2.343000000     3.090000000     2.102000000
H     1.603000000     3.060000000     1.497000000
H     2.891000000     2.348000000     1.847000000
O     5.599000000    -1.797000000     2.071000000
H     6.086000000    -2.402000000     1.511000000
H     4.725000000    -1.762000000     1.681000000
O     4.667000000    -2.188000000     5.672000000
H     4.495000000    -3.128000000     5.616000000
H     4.330000000    -1.934000000     6.531000000
O     0.790000000    -1.947000000    -3.869000000
H     0.920000000    -1.313000000    -4.574000000
H     0.309000000    -2.666000000    -4.278000000
O    -6.650000000     1.219000000     1.305000000
H    -6.334000000     1.264000000     0.402000000
H    -5.935000000     0.806000000     1.789000000
O     2.618000000    -4.705000000     2.571000000
H     3.334000000    -4.538000000     3.183000000
H     2.466000000    -3.862000000     2.144000000
O    -1.214000000    -2.720000000     4.180000000
H    -0.283000000    -2.553000000     4.034000000
H    -1.316000000    -3.659000000     4.025000000
O    -6.360000000     3.903000000     1.964000000
H    -6.832000000     3.083000000     1.820000000
H    -5.547000000     3.639000000     2.395000000
O    -4.264000000     0.574000000    -3.190000000
H    -3.551000000     1.094000000    -3.562000000
H    -4.753000000     0.261000000    -3.950000000
O    -0.576000000    -3.328000000    -1.513000000
H     0.028000000    -2.697000000    -1.906000000
H    -1.443000000    -3.040000000    -1.798000000
O     0.491000000    -5.632000000    -1.018000000
H     1.200000000    -5.724000000    -1.655000000
H     0.131000000    -4.761000000    -1.185000000
O    -4.356000000    -3.384000000     4.305000000
H    -4.912000000    -4.158000000     4.396000000
H    -4.375000000    -3.184000000     3.369000000
O    -4.872000000    -2.742000000     1.568000000
H    -4.982000000    -2.251000000     0.753000000
H    -4.010000000    -3.151000000     1.487000000
O     3.620000000    -7.195000000     2.080000000
H     3.313000000    -6.289000000     2.117000000
H     3.807000000    -7.347000000     1.154000000
O    -4.080000000     3.287000000     3.524000000
H    -4.481000000     3.848000000     4.188000000
H    -3.537000000     3.881000000     3.005000000
O    -6.152000000    -1.826000000    -0.764000000
H    -6.429000000    -0.927000000    -0.939000000
H    -5.886000000    -2.166000000    -1.618000000
O     4.565000000     2.628000000    -2.396000000
H     5.063000000     1.832000000    -2.213000000
H     4.752000000     2.823000000    -3.314000000
O    -1.855000000     1.541000000    -4.475000000
H    -1.265000000     1.177000000    -5.134000000
H    -1.579000000     2.453000000    -4.382000000
O     0.383000000    -5.043000000     4.500000000
H     1.206000000    -4.870000000     4.042000000
H     0.498000000    -4.639000000     5.360000000
O    -1.825000000     4.257000000     2.431000000
H    -1.079000000     4.709000000     2.826000000
H    -1.526000000     4.027000000     1.551000000
O     5.194000000    -0.137000000    -2.140000000
H     6.020000000    -0.574000000    -1.932000000
H     4.644000000    -0.287000000    -1.371000000
O     6.613000000     0.640000000     1.588000000
H     5.881000000     1.156000000     1.250000000
H     6.280000000    -0.257000000     1.619000000
O     1.836000000    -2.276000000     4.071000000
H     2.627000000    -2.528000000     4.548000000
H     2.119000000    -2.201000000     3.160000000
O     4.508000000    -1.173000000    -5.033000000
H     5.437000000    -1.394000000    -5.110000000
H     4.404000000    -0.891000000    -4.124000000
O    -2.628000000    -4.505000000     1.594000000
H    -2.816000000    -5.050000000     0.829000000
H    -1.677000000    -4.552000000     1.693000000
O     2.395000000     0.575000000     4.749000000
H     2.136000000    -0.320000000     4.530000000
H     3.254000000     0.682000000     4.341000000
O     0.056000000     3.709000000     0.302000000
H     0.028000000     3.050000000    -0.391000000
H     0.082000000     4.545000000    -0.163000000
O     4.853000000    -4.469000000     4.046000000
H     5.424000000    -5.198000000     4.286000000
H     5.125000000    -4.232000000     3.160000000
O     5.116000000    -0.099000000     4.150000000
H     4.792000000    -0.819000000     4.692000000
H     5.649000000    -0.526000000     3.479000000
O    -0.026000000    -5.211000000     1.564000000
H     0.296000000    -5.344000000     0.672000000
H     0.746000000    -4.935000000     2.059000000
O    -6.260000000     0.825000000    -1.545000000
H    -5.512000000     0.962000000    -2.126000000
H    -7.025000000     0.951000000    -2.105000000
O    -0.046000000     6.362000000    -1.768000000
H    -0.950000000     6.233000000    -2.057000000
H     0.069000000     7.312000000    -1.757000000
O    -0.262000000     3.877000000    -3.905000000
H     0.470000000     3.655000000    -3.329000000
H    -0.846000000     4.402000000    -3.358000000
O     4.267000000    -6.333000000    -0.422000000
H     3.722000000    -6.479000000    -1.195000000
H     4.189000000    -5.395000000    -0.248000000
O     2.116000000     1.963000000    -5.058000000
H     1.607000000     1.171000000    -5.230000000
H     2.963000000     1.797000000    -5.472000000
O     2.925000000    -3.590000000    -3.144000000
H     2.341000000    -2.832000000    -3.176000000
H     3.562000000    -3.373000000    -2.463000000
O     4.732000000     2.238000000     0.440000000
H     4.690000000     2.490000000    -0.482000000
H     5.343000000     2.862000000     0.831000000
O     6.892000000    -3.236000000     0.007000000
H     7.364000000    -3.818000000     0.603000000
H     7.576000000    -2.841000000    -0.534000000
O    -0.364000000     1.835000000     3.388000000
H     0.323000000     1.884000000     2.724000000
H    -0.992000000     2.511000000     3.134000000
O     4.385000000    -3.524000000    -0.835000000
H     3.787000000    -2.898000000    -0.427000000
H     5.247000000    -3.289000000    -0.492000000
O    -3.179000000    -2.668000000    -4.891000000
H    -2.740000000    -2.342000000    -4.105000000
H    -2.483000000    -3.087000000    -5.397000000
O    -0.488000000     3.761000000    -6.462000000
H    -0.536000000     4.621000000    -6.880000000
H    -0.281000000     3.951000000    -5.547000000
