161
-3036.01771
C     1.118000000    -0.521000000    -0.881000000
H     1.802000000    -0.845000000    -1.661000000
C     0.251000000     0.464000000    -1.200000000
H     0.224000000     0.795000000    -2.235000000
C    -0.850000000     0.883000000    -0.333000000
C    -1.963000000     1.810000000    -0.715000000
H    -2.837000000     1.630000000    -0.086000000
H    -1.713000000     2.870000000    -0.634000000
H    -2.262000000     1.600000000    -1.744000000
C    -0.871000000     0.318000000     0.884000000
H    -1.588000000     0.530000000     1.674000000
C     0.048000000    -0.676000000     1.279000000
H    -0.038000000    -1.163000000     2.247000000
C     1.146000000    -0.948000000     0.475000000
C     2.244000000    -1.971000000     0.887000000
O     2.388000000    -2.303000000     2.021000000
O     2.894000000    -2.480000000     0.021000000
O    -3.733000000     1.317000000    -5.611000000
H    -3.695000000     1.087000000    -6.539000000
H    -2.826000000     1.511000000    -5.374000000
O    -1.363000000    -2.419000000    -2.029000000
H    -1.324000000    -1.670000000    -1.435000000
H    -0.465000000    -2.522000000    -2.343000000
O     2.487000000     2.857000000    -2.072000000
H     2.822000000     2.379000000    -1.313000000
H     2.956000000     2.481000000    -2.817000000
O    -3.418000000     5.677000000    -1.708000000
H    -2.870000000     5.443000000    -2.458000000
H    -4.314000000     5.629000000    -2.042000000
O    -2.991000000    -1.070000000     4.042000000
H    -2.433000000    -1.771000000     4.378000000
H    -2.984000000    -0.406000000     4.731000000
O     0.231000000    -1.829000000     6.550000000
H     0.958000000    -2.449000000     6.604000000
H     0.649000000    -0.969000000     6.542000000
O    -3.802000000     6.015000000     1.778000000
H    -3.953000000     6.861000000     2.201000000
H    -4.253000000     6.085000000     0.936000000
O     5.356000000    -1.471000000     2.726000000
H     4.406000000    -1.584000000     2.685000000
H     5.688000000    -1.964000000     1.976000000
O    -1.110000000     2.004000000    -4.516000000
H    -1.022000000     2.564000000    -5.287000000
H    -0.716000000     2.511000000    -3.806000000
O     2.817000000    -2.772000000    -3.791000000
H     3.344000000    -2.928000000    -4.575000000
H     1.926000000    -2.653000000    -4.122000000
O    -4.390000000     0.580000000     2.188000000
H    -4.550000000     0.449000000     1.253000000
H    -3.866000000    -0.177000000     2.449000000
O     4.714000000    -4.284000000     4.636000000
H     5.627000000    -4.005000000     4.701000000
H     4.646000000    -4.683000000     3.769000000
O    -1.334000000    -3.461000000     3.807000000
H    -0.522000000    -3.947000000     3.666000000
H    -1.841000000    -3.602000000     3.007000000
O    -4.020000000     2.767000000     3.855000000
H    -3.922000000     2.250000000     3.056000000
H    -3.355000000     2.418000000     4.449000000
O    -4.923000000    -0.196000000    -3.363000000
H    -4.503000000     0.030000000    -4.193000000
H    -5.746000000     0.293000000    -3.371000000
O     1.075000000    -6.634000000    -1.109000000
H     1.626000000    -5.852000000    -1.137000000
H     0.258000000    -6.366000000    -1.529000000
O    -4.962000000    -2.756000000     2.965000000
H    -4.684000000    -3.027000000     2.090000000
H    -4.191000000    -2.331000000     3.340000000
O    -4.246000000     3.043000000    -2.883000000
H    -3.413000000     3.498000000    -3.011000000
H    -4.184000000     2.268000000    -3.441000000
O     1.328000000     0.774000000     6.265000000
H     1.360000000     0.606000000     5.323000000
H     1.390000000     1.727000000     6.340000000
O    -2.706000000    -4.081000000     1.426000000
H    -3.176000000    -3.455000000     0.876000000
H    -1.995000000    -4.401000000     0.870000000
O    -1.665000000     5.208000000     3.310000000
H    -2.516000000     5.366000000     2.900000000
H    -1.645000000     4.264000000     3.464000000
O    -2.132000000     1.204000000     5.393000000
H    -1.860000000     1.498000000     6.262000000
H    -1.498000000     1.601000000     4.796000000
O    -4.302000000    -2.511000000    -0.070000000
H    -4.549000000    -1.586000000    -0.094000000
H    -4.784000000    -2.907000000    -0.796000000
O     4.100000000     0.935000000    -0.628000000
H     4.123000000    -0.005000000    -0.449000000
H     4.695000000     1.052000000    -1.369000000
O     6.688000000    -2.415000000    -3.532000000
H     7.632000000    -2.356000000    -3.383000000
H     6.298000000    -1.991000000    -2.767000000
O    -1.459000000    -0.571000000    -4.540000000
H    -0.695000000    -1.130000000    -4.681000000
H    -1.105000000     0.318000000    -4.526000000
O    -0.584000000     2.705000000     3.555000000
H    -0.755000000     2.522000000     2.631000000
H     0.370000000     2.750000000     3.617000000
O     4.540000000    -1.902000000    -1.809000000
H     3.993000000    -2.179000000    -2.544000000
H     4.003000000    -2.068000000    -1.035000000
O     3.131000000    -2.407000000     5.988000000
H     3.787000000    -2.438000000     6.685000000
H     3.406000000    -3.083000000     5.370000000
O    -0.394000000    -5.504000000     1.084000000
H    -0.175000000    -6.393000000     0.805000000
H     0.230000000    -5.312000000     1.784000000
O    -6.825000000     1.818000000     3.060000000
H    -6.059000000     1.347000000     2.732000000
H    -6.590000000     2.065000000     3.954000000
O     1.848000000     2.132000000     1.334000000
H     1.901000000     1.498000000     2.049000000
H     1.070000000     1.872000000     0.841000000
O     5.070000000    -0.300000000     5.015000000
H     4.942000000    -1.008000000     5.647000000
H     5.408000000    -0.736000000     4.233000000
O     1.112000000    -4.658000000     3.116000000
H     1.812000000    -5.017000000     3.661000000
H     1.494000000    -3.874000000     2.722000000
O    -6.723000000     4.113000000    -3.290000000
H    -6.011000000     3.747000000    -2.765000000
H    -7.271000000     4.580000000    -2.659000000
O    -5.227000000    -0.024000000    -0.606000000
H    -4.960000000    -0.210000000    -1.506000000
H    -6.020000000     0.505000000    -0.696000000
O    -1.124000000     6.578000000    -0.003000000
H    -1.895000000     6.065000000    -0.245000000
H    -1.341000000     6.948000000     0.852000000
O     0.262000000     4.226000000    -2.846000000
H     0.950000000     3.721000000    -2.412000000
H     0.366000000     5.114000000    -2.506000000
O     4.157000000    -7.071000000     1.329000000
H     4.989000000    -7.152000000     0.862000000
H     4.013000000    -6.128000000     1.400000000
O     3.159000000     1.839000000    -4.401000000
H     4.032000000     1.490000000    -4.580000000
H     2.586000000     1.071000000    -4.420000000
O     5.236000000    -0.205000000    -4.103000000
H     5.120000000    -1.048000000    -3.664000000
H     5.647000000    -0.424000000    -4.939000000
O     0.444000000    -2.808000000    -5.079000000
H    -0.092000000    -3.591000000    -4.955000000
H     0.202000000    -2.487000000    -5.947000000
O     2.585000000    -4.387000000    -1.533000000
H     2.669000000    -3.786000000    -2.274000000
H     2.621000000    -3.822000000    -0.761000000
O     5.470000000    -4.859000000    -2.116000000
H     4.525000000    -4.996000000    -2.047000000
H     5.580000000    -3.911000000    -2.042000000
O     1.230000000     6.450000000    -1.212000000
H     1.663000000     7.072000000    -0.627000000
H     0.330000000     6.406000000    -0.892000000
O     6.185000000    -3.116000000     0.489000000
H     6.932000000    -3.383000000     1.024000000
H     6.564000000    -2.561000000    -0.192000000
O     2.257000000     0.622000000     3.537000000
H     2.302000000    -0.329000000     3.439000000
H     3.138000000     0.877000000     3.811000000
O     4.128000000    -4.408000000     1.820000000
H     3.573000000    -3.659000000     2.035000000
H     4.654000000    -4.110000000     1.078000000
