161
-3030.79072
C     1.397000000     0.317000000    -0.228000000
H     2.417000000     0.498000000    -0.558000000
C     0.334000000     1.224000000    -0.417000000
H     0.532000000     2.164000000    -0.927000000
C    -0.935000000     0.795000000    -0.105000000
C    -2.077000000     1.731000000    -0.314000000
H    -2.444000000     1.518000000    -1.321000000
H    -2.866000000     1.539000000     0.416000000
H    -1.696000000     2.752000000    -0.372000000
C    -1.208000000    -0.439000000     0.357000000
H    -2.205000000    -0.741000000     0.667000000
C    -0.154000000    -1.413000000     0.532000000
H    -0.199000000    -2.451000000     0.850000000
C     1.100000000    -1.013000000     0.171000000
C     2.302000000    -1.963000000     0.314000000
O     2.287000000    -3.027000000     0.912000000
O     3.423000000    -1.490000000     0.030000000
O     0.181000000     0.395000000    -4.358000000
H     0.510000000     1.291000000    -4.292000000
H    -0.022000000     0.283000000    -5.287000000
O     5.616000000     2.511000000    -0.643000000
H     5.058000000     3.007000000    -0.043000000
H     6.362000000     3.087000000    -0.808000000
O    -2.176000000    -4.477000000    -2.532000000
H    -2.814000000    -3.990000000    -2.010000000
H    -1.713000000    -3.805000000    -3.032000000
O    -0.945000000    -0.402000000     5.646000000
H    -0.216000000    -0.868000000     6.056000000
H    -0.930000000    -0.690000000     4.733000000
O    -2.313000000    -0.703000000     3.224000000
H    -1.471000000    -0.358000000     2.928000000
H    -2.946000000    -0.025000000     2.988000000
O    -3.612000000    -5.030000000     1.491000000
H    -3.592000000    -4.278000000     0.899000000
H    -3.415000000    -5.781000000     0.931000000
O     1.787000000     5.706000000    -4.104000000
H     1.260000000     5.901000000    -3.329000000
H     2.692000000     5.796000000    -3.808000000
O    -3.693000000     3.376000000    -3.735000000
H    -4.065000000     3.766000000    -4.526000000
H    -4.099000000     2.511000000    -3.680000000
O     4.664000000    -3.934000000     1.539000000
H     3.751000000    -3.735000000     1.331000000
H     5.171000000    -3.373000000     0.953000000
O    -5.739000000     2.364000000    -0.189000000
H    -5.163000000     3.128000000    -0.175000000
H    -6.490000000     2.621000000     0.346000000
O     4.295000000    -4.128000000     5.534000000
H     3.867000000    -3.745000000     4.768000000
H     3.655000000    -4.748000000     5.882000000
O    -3.606000000     4.344000000     1.523000000
H    -2.896000000     3.841000000     1.920000000
H    -3.431000000     4.304000000     0.582000000
O     0.289000000     0.930000000     2.687000000
H     0.113000000     0.422000000     1.895000000
H     1.243000000     0.965000000     2.743000000
O    -5.230000000     1.272000000    -2.773000000
H    -5.415000000     1.570000000    -1.883000000
H    -5.811000000     1.794000000    -3.327000000
O    -1.363000000    -3.757000000     5.061000000
H    -1.386000000    -2.834000000     5.313000000
H    -2.279000000    -3.984000000     4.902000000
O     0.735000000     5.087000000    -1.578000000
H     0.383000000     4.833000000    -0.725000000
H     0.432000000     4.404000000    -2.175000000
O     1.292000000    -5.481000000     0.880000000
H     1.731000000    -4.630000000     0.882000000
H     0.587000000    -5.388000000     1.521000000
O     2.653000000    -5.533000000    -2.851000000
H     3.235000000    -5.414000000    -2.100000000
H     1.947000000    -6.088000000    -2.521000000
O    -3.697000000     4.530000000    -1.133000000
H    -3.159000000     5.321000000    -1.093000000
H    -3.563000000     4.194000000    -2.020000000
O    -4.521000000     0.657000000     2.457000000
H    -5.060000000     1.099000000     3.113000000
H    -4.333000000     1.332000000     1.806000000
O    -4.124000000    -3.399000000    -0.940000000
H    -4.216000000    -2.769000000    -0.225000000
H    -4.904000000    -3.950000000    -0.875000000
O     6.282000000    -5.815000000     3.036000000
H     7.029000000    -5.474000000     2.545000000
H     5.518000000    -5.546000000     2.527000000
O     6.475000000    -3.000000000    -0.401000000
H     6.634000000    -2.097000000    -0.127000000
H     6.049000000    -2.921000000    -1.254000000
O     3.121000000    -5.985000000     3.278000000
H     3.386000000    -5.170000000     3.704000000
H     2.665000000    -5.703000000     2.485000000
O     1.232000000     2.926000000    -4.181000000
H     0.983000000     3.843000000    -4.297000000
H     2.062000000     2.960000000    -3.706000000
O     3.707000000     0.277000000    -4.649000000
H     3.206000000    -0.190000000    -3.980000000
H     3.450000000    -0.136000000    -5.473000000
O     4.698000000    -1.931000000    -2.186000000
H     4.194000000    -1.814000000    -1.380000000
H     4.041000000    -2.142000000    -2.850000000
O     5.795000000    -0.181000000     0.304000000
H     4.966000000    -0.647000000     0.421000000
H     5.573000000     0.567000000    -0.250000000
O    -2.537000000     6.873000000    -1.021000000
H    -2.090000000     6.703000000    -0.191000000
H    -2.125000000     7.669000000    -1.356000000
O    -1.444000000     4.782000000    -4.674000000
H    -1.979000000     5.526000000    -4.398000000
H    -1.891000000     4.017000000    -4.310000000
O    -3.396000000    -0.744000000    -2.619000000
H    -3.276000000    -1.081000000    -1.732000000
H    -3.643000000     0.172000000    -2.496000000
O     2.445000000     3.505000000     2.027000000
H     2.573000000     3.403000000     2.970000000
H     3.221000000     3.980000000     1.730000000
O    -1.480000000     3.069000000     2.820000000
H    -1.464000000     3.423000000     3.710000000
H    -1.015000000     2.235000000     2.886000000
O    -4.123000000    -0.825000000    -5.602000000
H    -3.726000000    -0.667000000    -4.745000000
H    -4.749000000    -1.532000000    -5.449000000
O     1.022000000    -7.085000000    -1.523000000
H     1.097000000    -6.404000000    -0.855000000
H     1.231000000    -7.897000000    -1.062000000
O     3.184000000     2.571000000    -1.989000000
H     4.023000000     2.404000000    -1.560000000
H     2.551000000     2.063000000    -1.483000000
O     4.057000000    -5.713000000    -0.636000000
H     3.985000000    -6.577000000    -0.230000000
H     4.302000000    -5.130000000     0.083000000
O     5.923000000     0.460000000     2.840000000
H     5.969000000     0.386000000     1.887000000
H     6.762000000     0.846000000     3.092000000
O    -1.602000000     6.746000000     1.889000000
H    -1.375000000     7.142000000     2.730000000
H    -0.951000000     6.056000000     1.766000000
O    -4.531000000    -2.076000000     1.385000000
H    -4.005000000    -1.364000000     1.751000000
H    -5.135000000    -2.313000000     2.090000000
O     3.277000000     0.114000000     3.685000000
H     3.169000000     0.923000000     4.185000000
H     4.113000000     0.223000000     3.232000000
O    -0.097000000     4.755000000     1.307000000
H     0.841000000     4.568000000     1.344000000
H    -0.513000000     3.953000000     1.623000000
O     1.960000000    -1.251000000    -3.361000000
H     1.267000000    -0.741000000    -3.780000000
H     1.502000000    -1.986000000    -2.952000000
O    -5.726000000    -2.032000000    -3.443000000
H    -4.902000000    -1.736000000    -3.057000000
H    -6.397000000    -1.504000000    -3.009000000
O    -0.832000000    -2.540000000    -3.996000000
H    -0.333000000    -2.900000000    -4.729000000
H    -0.810000000    -1.593000000    -4.134000000
O    -0.680000000    -5.161000000     2.805000000
H    -0.982000000    -4.794000000     3.637000000
H    -1.476000000    -5.258000000     2.283000000
O     6.329000000    -0.262000000    -3.806000000
H     5.429000000    -0.182000000    -4.124000000
H     6.261000000    -0.832000000    -3.040000000
O     2.954000000    -2.711000000     3.638000000
H     3.024000000    -1.761000000     3.547000000
H     2.418000000    -2.985000000     2.893000000
