161
-3020.10572
C     1.295000000     0.580000000    -0.067000000
H     2.234000000     1.098000000    -0.242000000
C     0.179000000     1.085000000    -0.610000000
H     0.223000000     2.001000000    -1.193000000
C    -1.118000000     0.536000000    -0.321000000
C    -2.374000000     1.021000000    -1.080000000
H    -2.315000000     0.752000000    -2.137000000
H    -3.250000000     0.447000000    -0.773000000
H    -2.566000000     2.092000000    -0.997000000
C    -1.097000000    -0.671000000     0.406000000
H    -2.062000000    -1.153000000     0.532000000
C     0.159000000    -1.180000000     0.897000000
H     0.133000000    -2.099000000     1.476000000
C     1.405000000    -0.556000000     0.679000000
C     2.709000000    -1.100000000     1.119000000
O     2.701000000    -2.255000000     1.512000000
O     3.749000000    -0.600000000     0.792000000
O    -5.511000000     3.851000000    -4.212000000
H    -5.371000000     2.911000000    -4.095000000
H    -5.850000000     3.932000000    -5.103000000
O    -2.111000000     3.142000000    -4.238000000
H    -2.872000000     3.722000000    -4.270000000
H    -2.104000000     2.709000000    -5.092000000
O     0.068000000    -1.593000000    -2.184000000
H    -0.101000000    -1.152000000    -1.351000000
H    -0.683000000    -2.174000000    -2.304000000
O    -1.738000000    -0.477000000     4.048000000
H    -2.482000000    -0.304000000     3.471000000
H    -1.008000000    -0.008000000     3.645000000
O    -1.974000000    -3.440000000     2.621000000
H    -1.332000000    -3.121000000     3.255000000
H    -1.529000000    -4.156000000     2.168000000
O    -3.313000000     5.534000000    -3.341000000
H    -3.413000000     5.492000000    -2.390000000
H    -3.982000000     4.938000000    -3.679000000
O     5.983000000     0.723000000     1.727000000
H     5.254000000     0.308000000     1.265000000
H     6.515000000    -0.008000000     2.042000000
O    -5.009000000     1.296000000    -3.657000000
H    -5.051000000     0.344000000    -3.741000000
H    -4.803000000     1.447000000    -2.735000000
O    -2.571000000     4.732000000     1.987000000
H    -3.240000000     4.432000000     2.602000000
H    -1.743000000     4.466000000     2.387000000
O     0.708000000     0.963000000     4.291000000
H     1.507000000     0.536000000     4.600000000
H     0.426000000     1.506000000     5.027000000
O    -3.922000000     5.207000000    -0.783000000
H    -3.501000000     5.052000000     0.062000000
H    -4.367000000     4.383000000    -0.984000000
O     2.094000000    -4.353000000    -0.095000000
H     2.139000000    -3.793000000    -0.870000000
H     2.391000000    -3.794000000     0.623000000
O     2.724000000     5.014000000     0.488000000
H     2.019000000     5.635000000     0.668000000
H     3.329000000     5.495000000    -0.076000000
O     2.711000000    -2.550000000     4.200000000
H     2.659000000    -2.871000000     3.299000000
H     1.803000000    -2.537000000     4.502000000
O    -0.216000000     3.574000000     2.884000000
H     0.655000000     3.237000000     2.672000000
H    -0.805000000     2.839000000     2.715000000
O     2.629000000    -2.438000000    -2.274000000
H     1.745000000    -2.073000000    -2.314000000
H     3.199000000    -1.711000000    -2.523000000
O    -4.798000000    -5.128000000    -0.980000000
H    -4.399000000    -4.421000000    -0.473000000
H    -4.398000000    -5.057000000    -1.847000000
O     4.400000000    -3.163000000     6.268000000
H     3.616000000    -3.036000000     5.735000000
H     4.330000000    -4.063000000     6.586000000
O    -5.863000000     0.807000000     3.079000000
H    -5.769000000     0.794000000     4.031000000
H    -6.535000000     0.151000000     2.896000000
O    -2.467000000    -2.321000000    -3.269000000
H    -3.206000000    -1.812000000    -2.936000000
H    -2.799000000    -3.217000000    -3.325000000
O     1.156000000     3.123000000    -4.864000000
H     1.275000000     2.177000000    -4.773000000
H     0.345000000     3.215000000    -5.363000000
O    -3.763000000    -3.040000000     0.594000000
H    -4.609000000    -2.823000000     0.986000000
H    -3.203000000    -3.259000000     1.339000000
O     5.953000000    -2.023000000     0.527000000
H     6.384000000    -1.353000000    -0.003000000
H     5.049000000    -1.719000000     0.609000000
O     5.945000000    -5.700000000     4.140000000
H     6.901000000    -5.672000000     4.101000000
H     5.661000000    -5.039000000     3.509000000
O     0.505000000     6.610000000    -0.682000000
H     0.773000000     7.240000000    -1.351000000
H     0.258000000     5.828000000    -1.175000000
O     0.145000000     0.270000000    -6.973000000
H     0.668000000     1.034000000    -7.211000000
H     0.029000000     0.344000000    -6.026000000
O     7.163000000    -3.819000000     1.974000000
H     6.749000000    -3.157000000     1.421000000
H     7.729000000    -3.320000000     2.563000000
O     4.259000000    -0.286000000    -1.887000000
H     4.115000000    -0.316000000    -0.941000000
H     5.191000000    -0.477000000    -1.993000000
O     3.198000000     0.555000000     6.306000000
H     3.253000000     1.483000000     6.079000000
H     3.393000000     0.097000000     5.489000000
O    -6.020000000    -1.005000000    -0.597000000
H    -5.969000000    -1.767000000    -0.020000000
H    -6.167000000    -0.266000000    -0.007000000
O     7.699000000     2.907000000     1.178000000
H     7.374000000     2.009000000     1.105000000
H     7.012000000     3.443000000     0.781000000
O     0.234000000    -5.852000000     4.179000000
H    -0.149000000    -6.721000000     4.056000000
H     0.132000000    -5.423000000     3.330000000
O    -5.524000000    -1.382000000    -3.159000000
H    -6.168000000    -1.960000000    -3.568000000
H    -5.788000000    -1.342000000    -2.240000000
O    -4.261000000     1.746000000    -6.166000000
H    -4.849000000     2.451000000    -6.434000000
H    -4.574000000     1.490000000    -5.298000000
O    -6.941000000     1.356000000     0.572000000
H    -7.895000000     1.346000000     0.644000000
H    -6.634000000     1.437000000     1.475000000
O     4.051000000    -0.305000000     3.721000000
H     3.792000000    -1.214000000     3.877000000
H     3.934000000    -0.181000000     2.779000000
O    -5.910000000     3.213000000    -1.263000000
H    -6.465000000     3.978000000    -1.114000000
H    -6.092000000     2.637000000    -0.520000000
O    -0.145000000    -4.969000000     1.442000000
H     0.564000000    -4.632000000     0.895000000
H    -0.511000000    -5.696000000     0.938000000
O     0.113000000     4.395000000    -2.677000000
H    -0.739000000     4.274000000    -3.096000000
H     0.742000000     4.047000000    -3.308000000
O     3.540000000     1.439000000    -3.815000000
H     4.120000000     2.111000000    -3.455000000
H     3.555000000     0.736000000    -3.166000000
O     5.116000000    -4.595000000    -0.989000000
H     5.295000000    -3.935000000    -0.319000000
H     4.221000000    -4.882000000    -0.809000000
O    -0.969000000    -2.192000000    -5.915000000
H    -1.493000000    -1.920000000    -5.162000000
H    -0.730000000    -1.372000000    -6.348000000
O     6.957000000    -0.297000000    -1.275000000
H     7.857000000     0.030000000    -1.247000000
H     6.850000000    -0.627000000    -2.166000000
O     3.412000000     2.927000000     2.221000000
H     4.331000000     2.825000000     1.974000000
H     3.068000000     3.575000000     1.606000000
O    -0.424000000     0.440000000    -4.303000000
H    -0.259000000    -0.176000000    -3.589000000
H    -0.954000000     1.131000000    -3.906000000
O     0.050000000    -2.348000000     4.591000000
H    -0.546000000    -1.609000000     4.467000000
H     0.216000000    -2.367000000     5.533000000
O     5.222000000     3.666000000    -0.105000000
H     5.157000000     3.670000000    -1.060000000
H     4.557000000     4.291000000     0.184000000
O     5.904000000     1.545000000     4.753000000
H     5.233000000     0.878000000     4.612000000
H     6.621000000     1.290000000     4.172000000
