161
-3046.28053
C     1.416000000     0.508000000    -0.015000000
H     2.415000000     0.936000000    -0.026000000
C     0.325000000     1.066000000    -0.698000000
H     0.446000000     1.912000000    -1.371000000
C    -0.924000000     0.452000000    -0.704000000
C    -2.059000000     1.206000000    -1.302000000
H    -2.037000000     2.255000000    -0.998000000
H    -2.162000000     1.047000000    -2.377000000
H    -2.880000000     0.754000000    -0.740000000
C    -1.104000000    -0.730000000    -0.008000000
H    -2.069000000    -1.228000000     0.042000000
C    -0.049000000    -1.248000000     0.724000000
H    -0.301000000    -2.184000000     1.215000000
C     1.222000000    -0.681000000     0.735000000
C     2.340000000    -1.251000000     1.569000000
O     2.105000000    -2.246000000     2.240000000
O     3.314000000    -0.563000000     1.714000000
O    -4.401000000     2.981000000    -4.401000000
H    -4.971000000     3.003000000    -5.169000000
H    -3.684000000     3.577000000    -4.618000000
O    -0.030000000    -1.774000000    -3.704000000
H    -0.957000000    -1.809000000    -3.467000000
H     0.245000000    -2.691000000    -3.729000000
O     1.010000000     0.472000000     5.958000000
H     0.558000000     1.297000000     5.785000000
H     1.919000000     0.638000000     5.707000000
O     0.298000000     6.306000000    -1.466000000
H     0.934000000     6.682000000    -2.074000000
H     0.047000000     5.473000000    -1.866000000
O     2.067000000     4.659000000    -3.443000000
H     2.621000000     4.350000000    -4.160000000
H     1.220000000     4.240000000    -3.596000000
O     7.250000000    -1.042000000     3.367000000
H     7.045000000    -0.386000000     4.034000000
H     6.932000000    -0.659000000     2.549000000
O    -5.379000000     0.865000000    -0.466000000
H    -6.172000000     0.548000000    -0.899000000
H    -5.060000000     0.112000000     0.031000000
O    -1.870000000     4.721000000     1.240000000
H    -0.994000000     5.050000000     1.041000000
H    -1.721000000     3.994000000     1.845000000
O     3.926000000    -4.061000000     2.717000000
H     4.535000000    -3.578000000     3.276000000
H     3.232000000    -3.432000000     2.519000000
O    -0.634000000     3.843000000    -3.197000000
H    -0.613000000     2.949000000    -3.540000000
H    -1.513000000     4.159000000    -3.406000000
O     4.153000000     4.014000000    -1.684000000
H     3.362000000     4.132000000    -2.210000000
H     4.797000000     4.598000000    -2.084000000
O     5.383000000     1.560000000    -1.031000000
H     5.778000000     1.298000000    -1.863000000
H     4.778000000     2.265000000    -1.265000000
O     0.414000000    -3.008000000     4.257000000
H     0.856000000    -2.491000000     3.584000000
H     0.465000000    -2.469000000     5.046000000
O    -0.546000000     2.557000000     2.093000000
H    -0.209000000     2.037000000     1.363000000
H     0.041000000     2.356000000     2.822000000
O     5.805000000    -3.004000000     4.704000000
H     5.240000000    -2.428000000     5.218000000
H     6.533000000    -2.445000000     4.431000000
O    -5.574000000    -4.488000000    -2.557000000
H    -6.472000000    -4.310000000    -2.279000000
H    -5.030000000    -4.007000000    -1.933000000
O     4.269000000     4.700000000     0.886000000
H     4.140000000     4.397000000    -0.013000000
H     4.074000000     3.936000000     1.427000000
O    -4.109000000     0.356000000    -4.588000000
H    -3.969000000     1.293000000    -4.455000000
H    -4.779000000     0.120000000    -3.946000000
O    -6.192000000    -0.868000000    -3.327000000
H    -6.592000000    -1.538000000    -2.772000000
H    -6.922000000    -0.306000000    -3.587000000
O    -4.298000000    -0.563000000     3.199000000
H    -3.877000000     0.194000000     2.791000000
H    -4.279000000    -0.372000000     4.136000000
O     3.200000000    -1.350000000    -2.938000000
H     2.277000000    -1.403000000    -2.690000000
H     3.675000000    -1.397000000    -2.109000000
O    -2.124000000    -4.366000000     1.447000000
H    -1.894000000    -4.909000000     2.201000000
H    -1.353000000    -3.818000000     1.302000000
O     5.575000000    -3.992000000     0.785000000
H     6.353000000    -3.724000000     1.274000000
H     4.939000000    -4.233000000     1.458000000
O    -0.062000000     1.120000000    -3.917000000
H    -0.092000000     0.537000000    -3.158000000
H    -0.463000000     0.614000000    -4.623000000
O     6.266000000     0.778000000     5.304000000
H     5.316000000     0.892000000     5.272000000
H     6.616000000     1.665000000     5.228000000
O     6.669000000    -0.917000000    -2.218000000
H     6.059000000    -0.863000000    -1.483000000
H     6.350000000    -0.266000000    -2.843000000
O     4.215000000    -6.427000000     1.133000000
H     4.297000000    -7.306000000     1.503000000
H     3.725000000    -5.934000000     1.792000000
O     3.331000000     2.554000000     2.301000000
H     3.170000000     1.626000000     2.126000000
H     3.624000000     2.578000000     3.212000000
O    -3.120000000    -3.308000000    -0.737000000
H    -3.671000000    -2.709000000    -0.233000000
H    -2.797000000    -3.937000000    -0.092000000
O    -4.857000000     3.230000000    -1.624000000
H    -4.856000000     2.974000000    -2.546000000
H    -4.906000000     2.403000000    -1.145000000
O     1.127000000    -4.587000000     1.303000000
H     1.432000000    -3.749000000     1.653000000
H     1.233000000    -5.202000000     2.029000000
O    -2.541000000    -2.405000000    -3.205000000
H    -3.216000000    -1.731000000    -3.127000000
H    -2.469000000    -2.775000000    -2.325000000
O     4.617000000    -1.812000000    -0.557000000
H     4.227000000    -1.205000000     0.073000000
H     4.908000000    -2.553000000    -0.027000000
O    -4.690000000    -1.450000000     0.537000000
H    -5.575000000    -1.814000000     0.534000000
H    -4.438000000    -1.442000000     1.461000000
O    -4.938000000    -1.329000000    -6.473000000
H    -4.692000000    -0.591000000    -5.916000000
H    -5.244000000    -1.999000000    -5.863000000
O     3.379000000     0.376000000     4.471000000
H     3.803000000    -0.244000000     5.065000000
H     3.186000000    -0.137000000     3.687000000
O    -2.852000000     6.026000000    -3.699000000
H    -2.131000000     6.657000000    -3.706000000
H    -3.112000000     5.971000000    -2.779000000
O     0.174000000     2.597000000    -6.492000000
H     0.461000000     2.421000000    -5.596000000
H     0.518000000     1.864000000    -7.002000000
O     2.695000000     1.145000000    -4.548000000
H     2.863000000     0.203000000    -4.586000000
H     1.832000000     1.219000000    -4.142000000
O     0.221000000    -5.270000000    -1.113000000
H     0.441000000    -4.997000000    -0.222000000
H     0.606000000    -4.596000000    -1.672000000
O    -1.571000000    -0.231000000    -5.931000000
H    -2.367000000    -0.051000000    -5.432000000
H    -1.782000000    -1.009000000    -6.447000000
O    -5.720000000     4.384000000     0.828000000
H    -6.197000000     3.791000000     1.410000000
H    -5.537000000     3.858000000     0.050000000
O     5.764000000     0.234000000     1.364000000
H     4.848000000     0.253000000     1.640000000
H     5.778000000     0.729000000     0.545000000
O    -3.300000000     1.544000000     2.008000000
H    -3.726000000     1.907000000     1.231000000
H    -2.426000000     1.933000000     2.006000000
O     0.113000000    -5.671000000     4.242000000
H    -0.310000000    -5.850000000     3.402000000
H     0.138000000    -4.716000000     4.298000000
O     8.149000000     2.085000000     1.379000000
H     7.896000000     2.734000000     0.723000000
H     7.403000000     1.488000000     1.426000000
O    -3.205000000     5.777000000    -1.026000000
H    -3.419000000     4.934000000    -1.427000000
H    -2.684000000     5.551000000    -0.255000000
O    -4.079000000    -3.484000000     4.454000000
H    -3.838000000    -2.646000000     4.059000000
H    -4.643000000    -3.902000000     3.803000000
