161
-3066.29279
C     1.121000000     0.623000000     0.807000000
H     1.879000000     1.198000000     1.333000000
C     0.267000000     1.237000000    -0.097000000
H     0.391000000     2.286000000    -0.354000000
C    -0.771000000     0.579000000    -0.783000000
C    -1.630000000     1.330000000    -1.784000000
H    -1.031000000     2.027000000    -2.374000000
H    -2.135000000     0.603000000    -2.425000000
H    -2.352000000     1.973000000    -1.277000000
C    -0.808000000    -0.801000000    -0.697000000
H    -1.553000000    -1.388000000    -1.228000000
C     0.002000000    -1.501000000     0.250000000
H    -0.213000000    -2.539000000     0.489000000
C     0.979000000    -0.776000000     0.981000000
C     1.773000000    -1.443000000     2.085000000
O     1.800000000    -2.645000000     2.144000000
O     2.277000000    -0.767000000     2.934000000
O    -5.146000000     1.368000000    -2.788000000
H    -4.275000000     1.046000000    -3.018000000
H    -5.714000000     1.041000000    -3.486000000
O    -1.349000000    -2.581000000    -3.468000000
H    -1.707000000    -3.105000000    -2.751000000
H    -0.447000000    -2.887000000    -3.561000000
O     1.052000000    -6.757000000     2.890000000
H     1.612000000    -6.975000000     3.635000000
H     0.182000000    -7.060000000     3.148000000
O     3.475000000     5.089000000     3.822000000
H     3.682000000     5.803000000     3.218000000
H     2.552000000     4.897000000     3.657000000
O    -4.341000000     6.338000000     0.616000000
H    -4.222000000     5.512000000     0.148000000
H    -3.857000000     6.980000000     0.097000000
O     3.865000000     4.041000000    -3.000000000
H     3.292000000     3.364000000    -2.640000000
H     3.471000000     4.264000000    -3.844000000
O     4.775000000    -2.071000000     6.709000000
H     5.499000000    -2.263000000     6.113000000
H     4.187000000    -1.513000000     6.200000000
O     3.366000000    -2.396000000    -2.326000000
H     3.734000000    -2.426000000    -1.443000000
H     4.030000000    -2.812000000    -2.876000000
O    -1.996000000    -6.477000000     2.552000000
H    -2.872000000    -6.849000000     2.655000000
H    -1.706000000    -6.782000000     1.692000000
O    -1.157000000     5.294000000     0.954000000
H    -2.085000000     5.466000000     1.116000000
H    -0.969000000     4.501000000     1.456000000
O     5.997000000     3.843000000     2.702000000
H     5.265000000     4.419000000     2.919000000
H     5.735000000     2.986000000     3.039000000
O     3.670000000    -4.172000000     3.548000000
H     3.241000000    -4.210000000     4.402000000
H     3.038000000    -3.729000000     2.982000000
O     0.011000000     4.937000000    -1.546000000
H    -0.235000000     5.184000000    -0.655000000
H     0.965000000     5.006000000    -1.559000000
O     2.511000000     4.101000000    -0.010000000
H     3.371000000     3.906000000     0.362000000
H     2.278000000     3.313000000    -0.499000000
O     4.469000000     1.225000000     0.248000000
H     3.858000000     1.193000000    -0.488000000
H     5.329000000     1.090000000    -0.149000000
O    -0.501000000    -2.951000000     3.791000000
H     0.400000000    -3.074000000     3.492000000
H    -0.531000000    -2.044000000     4.096000000
O    -1.033000000     2.945000000     2.108000000
H    -0.895000000     2.230000000     1.487000000
H    -0.221000000     2.983000000     2.613000000
O     2.570000000    -4.544000000     6.173000000
H     1.984000000    -5.258000000     6.426000000
H     2.358000000    -3.835000000     6.781000000
O     1.033000000    -3.833000000    -3.137000000
H     1.737000000    -3.266000000    -2.824000000
H     1.466000000    -4.446000000    -3.732000000
O    -2.479000000    -3.514000000     1.851000000
H    -2.663000000    -4.421000000     1.606000000
H    -1.718000000    -3.573000000     2.429000000
O    -1.798000000    -7.298000000     0.034000000
H    -1.051000000    -7.053000000    -0.510000000
H    -2.086000000    -8.140000000    -0.318000000
O     4.981000000    -5.780000000     1.167000000
H     5.425000000    -6.607000000     1.355000000
H     4.782000000    -5.414000000     2.028000000
O     6.265000000    -3.244000000     4.438000000
H     5.394000000    -3.554000000     4.191000000
H     6.708000000    -3.084000000     3.604000000
O    -0.727000000    -0.349000000    -4.800000000
H    -1.011000000    -0.913000000    -4.081000000
H    -1.538000000     0.022000000    -5.149000000
O     6.621000000    -1.360000000    -0.398000000
H     5.807000000    -1.671000000    -0.002000000
H     6.353000000    -0.999000000    -1.243000000
O     0.715000000     1.698000000     4.011000000
H     1.239000000     0.924000000     3.807000000
H     0.960000000     1.923000000     4.909000000
O    -4.864000000    -2.779000000    -1.409000000
H    -5.372000000    -2.081000000    -1.823000000
H    -4.949000000    -2.614000000    -0.470000000
O    -4.684000000     1.015000000     0.145000000
H    -4.912000000     1.275000000    -0.748000000
H    -5.122000000     0.172000000     0.267000000
O     1.849000000    -4.981000000     0.779000000
H     1.685000000    -5.615000000     1.477000000
H     1.699000000    -4.129000000     1.188000000
O    -2.226000000    -3.741000000    -0.940000000
H    -3.023000000    -3.226000000    -1.068000000
H    -1.970000000    -3.565000000    -0.035000000
O     2.628000000     1.634000000    -1.980000000
H     3.002000000     1.273000000    -2.784000000
H     2.010000000     0.966000000    -1.682000000
O     4.173000000    -2.938000000     0.336000000
H     3.452000000    -2.751000000     0.938000000
H     4.185000000    -3.892000000     0.267000000
O    -4.851000000    -2.239000000     1.633000000
H    -4.173000000    -2.910000000     1.712000000
H    -4.646000000    -1.609000000     2.324000000
O     2.775000000    -0.463000000     5.538000000
H     2.964000000     0.467000000     5.662000000
H     2.787000000    -0.585000000     4.589000000
O    -2.104000000     3.947000000    -3.444000000
H    -1.297000000     3.857000000    -2.937000000
H    -2.292000000     4.886000000    -3.430000000
O     1.738000000     0.109000000    -5.601000000
H     1.596000000    -0.100000000    -6.524000000
H     0.887000000    -0.038000000    -5.188000000
O     0.549000000    -6.299000000    -1.083000000
H     1.194000000    -6.041000000    -0.424000000
H     0.279000000    -5.475000000    -1.490000000
O     0.806000000     3.260000000    -5.470000000
H     0.528000000     2.470000000    -5.006000000
H     0.191000000     3.338000000    -6.199000000
O    -3.504000000     4.084000000    -5.769000000
H    -3.306000000     4.955000000    -6.115000000
H    -3.044000000     4.050000000    -4.930000000
O    -3.163000000     1.041000000    -5.445000000
H    -2.964000000     1.958000000    -5.633000000
H    -3.922000000     0.843000000    -5.993000000
O    -2.958000000    -6.201000000    -2.697000000
H    -2.675000000    -5.525000000    -2.081000000
H    -2.431000000    -6.047000000    -3.481000000
O     2.221000000     7.029000000     0.680000000
H     2.974000000     7.083000000     1.269000000
H     2.084000000     6.090000000     0.551000000
O    -2.891000000    -3.097000000    -5.634000000
H    -3.665000000    -2.602000000    -5.367000000
H    -2.271000000    -2.980000000    -4.914000000
O     4.564000000     0.828000000     3.081000000
H     3.774000000     0.289000000     3.036000000
H     4.768000000     1.030000000     2.168000000
O    -3.895000000     2.365000000     2.541000000
H    -4.220000000     2.005000000     1.716000000
H    -3.035000000     2.725000000     2.322000000
O     0.377000000    -1.675000000     6.650000000
H     0.329000000    -2.254000000     7.411000000
H     1.266000000    -1.321000000     6.675000000
O     6.647000000     0.571000000     4.888000000
H     6.678000000     1.470000000     5.216000000
H     5.984000000     0.590000000     4.198000000
O    -4.132000000     4.450000000    -1.210000000
H    -5.002000000     4.478000000    -1.609000000
H    -3.591000000     3.986000000    -1.849000000
