161
-3012.71903
C     0.249000000     0.443000000     1.332000000
H     0.440000000     0.866000000     2.315000000
C     0.019000000     1.285000000     0.286000000
H     0.018000000     2.370000000     0.346000000
C    -0.302000000     0.682000000    -0.947000000
C    -0.564000000     1.602000000    -2.141000000
H    -1.342000000     1.223000000    -2.807000000
H    -0.674000000     2.662000000    -1.901000000
H     0.282000000     1.564000000    -2.830000000
C    -0.313000000    -0.695000000    -1.076000000
H    -0.618000000    -1.189000000    -1.995000000
C    -0.008000000    -1.459000000     0.070000000
H    -0.072000000    -2.540000000    -0.021000000
C     0.321000000    -0.903000000     1.266000000
C     0.676000000    -1.748000000     2.417000000
O     0.785000000    -2.909000000     2.248000000
O     1.108000000    -1.246000000     3.433000000
O    -1.669000000     5.058000000     2.750000000
H    -2.115000000     5.836000000     3.086000000
H    -0.911000000     5.402000000     2.277000000
O     1.356000000    -4.462000000    -1.261000000
H     1.322000000    -4.965000000    -0.447000000
H     2.189000000    -3.991000000    -1.216000000
O     4.532000000    -4.314000000     0.831000000
H     4.762000000    -4.351000000    -0.097000000
H     3.655000000    -4.695000000     0.875000000
O    -4.548000000     1.951000000     2.376000000
H    -3.957000000     1.254000000     2.090000000
H    -5.154000000     2.065000000     1.644000000
O    -3.737000000     2.292000000    -1.102000000
H    -3.427000000     3.189000000    -0.981000000
H    -3.733000000     2.162000000    -2.050000000
O     2.273000000     5.242000000     3.590000000
H     2.383000000     4.760000000     2.771000000
H     3.155000000     5.539000000     3.813000000
O     2.064000000    -5.448000000     1.181000000
H     1.518000000    -4.846000000     1.686000000
H     1.803000000    -6.319000000     1.482000000
O     3.662000000     0.017000000    -3.202000000
H     3.497000000    -0.926000000    -3.204000000
H     3.192000000     0.341000000    -2.435000000
O    -2.874000000     0.340000000     0.821000000
H    -1.925000000     0.304000000     0.707000000
H    -3.184000000     0.871000000     0.087000000
O    -2.729000000     4.587000000     0.088000000
H    -2.443000000     5.490000000    -0.046000000
H    -2.565000000     4.418000000     1.015000000
O     0.714000000    -4.754000000     4.242000000
H     0.950000000    -3.899000000     3.884000000
H     1.552000000    -5.196000000     4.378000000
O    -3.935000000     1.803000000    -3.996000000
H    -3.681000000     1.919000000    -4.911000000
H    -4.102000000     0.864000000    -3.911000000
O    -0.089000000     2.307000000    -5.718000000
H     0.720000000     2.507000000    -5.247000000
H    -0.538000000     3.149000000    -5.791000000
O     3.752000000     3.293000000     1.737000000
H     4.391000000     2.580000000     1.755000000
H     3.977000000     3.797000000     0.955000000
O     2.133000000    -6.283000000    -3.002000000
H     1.537000000    -5.705000000    -2.526000000
H     1.577000000    -6.997000000    -3.312000000
O    -1.890000000    -3.858000000     3.968000000
H    -1.709000000    -3.160000000     4.597000000
H    -1.025000000    -4.181000000     3.714000000
O    -3.006000000    -2.691000000    -1.418000000
H    -3.121000000    -3.629000000    -1.572000000
H    -2.108000000    -2.610000000    -1.095000000
O    -1.215000000     3.255000000     4.656000000
H    -0.947000000     3.814000000     5.386000000
H    -1.515000000     3.867000000     3.984000000
O     2.638000000     2.491000000    -4.798000000
H     2.901000000     2.733000000    -3.910000000
H     3.332000000     1.907000000    -5.103000000
O    -2.963000000    -1.630000000     2.704000000
H    -2.824000000    -1.432000000     1.778000000
H    -2.096000000    -1.543000000     3.101000000
O    -4.199000000    -4.298000000     2.052000000
H    -3.320000000    -3.981000000     2.261000000
H    -4.742000000    -3.510000000     2.047000000
O     4.688000000     3.292000000     4.559000000
H     4.155000000     3.507000000     3.793000000
H     5.176000000     2.510000000     4.299000000
O     5.029000000    -1.664000000     5.010000000
H     4.507000000    -2.130000000     4.358000000
H     4.386000000    -1.194000000     5.541000000
O     0.605000000     6.912000000     2.257000000
H     1.030000000     7.758000000     2.395000000
H     1.054000000     6.317000000     2.858000000
O    -1.114000000    -5.938000000     6.196000000
H    -0.969000000    -5.507000000     5.354000000
H    -1.074000000    -5.229000000     6.838000000
O     2.783000000     3.399000000    -2.222000000
H     3.459000000     3.439000000    -1.545000000
H     2.232000000     2.660000000    -1.965000000
O    -0.728000000    -1.683000000     5.202000000
H    -0.279000000    -1.737000000     6.046000000
H    -0.022000000    -1.604000000     4.560000000
O    -5.546000000    -2.292000000    -0.739000000
H    -4.633000000    -2.232000000    -1.018000000
H    -5.984000000    -2.762000000    -1.448000000
O    -0.797000000    -6.587000000     1.917000000
H    -0.453000000    -6.995000000     1.122000000
H    -0.236000000    -6.918000000     2.618000000
O     0.979000000     5.649000000    -2.293000000
H     1.793000000     5.240000000    -1.999000000
H     0.671000000     5.086000000    -3.004000000
O    -1.299000000    -4.165000000     0.968000000
H    -1.141000000    -5.070000000     1.237000000
H    -0.521000000    -3.689000000     1.260000000
O    -3.036000000    -3.944000000    -5.094000000
H    -3.223000000    -4.850000000    -5.339000000
H    -3.896000000    -3.557000000    -4.930000000
O     0.100000000     0.793000000     7.606000000
H    -0.590000000     0.277000000     8.022000000
H     0.812000000     0.802000000     8.246000000
O     2.846000000     0.563000000    -0.649000000
H     3.300000000     0.031000000     0.004000000
H     1.918000000     0.456000000    -0.442000000
O     3.593000000    -3.056000000     3.198000000
H     3.699000000    -3.432000000     2.324000000
H     2.709000000    -2.690000000     3.196000000
O     2.481000000    -1.022000000     6.273000000
H     2.111000000    -1.857000000     6.559000000
H     1.771000000    -0.597000000     5.792000000
O    -2.913000000    -1.255000000    -3.728000000
H    -2.984000000    -2.077000000    -4.214000000
H    -2.905000000    -1.520000000    -2.809000000
O     2.009000000    -2.459000000    -4.067000000
H     1.243000000    -2.686000000    -3.539000000
H     1.984000000    -3.074000000    -4.801000000
O     0.587000000    -2.718000000     7.244000000
H     1.303000000    -3.335000000     7.392000000
H    -0.065000000    -2.943000000     7.908000000
O     1.643000000     2.381000000     4.449000000
H     1.701000000     3.335000000     4.504000000
H     0.772000000     2.174000000     4.789000000
O     4.548000000    -1.021000000     0.698000000
H     3.983000000    -0.638000000     1.368000000
H     5.305000000    -1.351000000     1.182000000
O    -1.964000000     0.448000000    -5.699000000
H    -1.946000000    -0.272000000    -5.069000000
H    -1.303000000     1.063000000    -5.379000000
O     1.393000000    -0.483000000    -6.069000000
H     1.616000000    -0.308000000    -5.155000000
H     2.126000000    -0.122000000    -6.568000000
O    -0.755000000     6.668000000     0.056000000
H    -0.147000000     6.752000000     0.790000000
H    -0.207000000     6.771000000    -0.722000000
O     4.309000000     0.884000000     6.849000000
H     3.542000000     0.350000000     7.058000000
H     3.946000000     1.710000000     6.531000000
O     3.525000000    -5.303000000     5.104000000
H     3.897000000    -4.571000000     4.612000000
H     4.220000000    -5.561000000     5.710000000
O     2.990000000     0.599000000     3.053000000
H     2.497000000    -0.196000000     3.254000000
H     2.486000000     1.303000000     3.461000000
O    -2.214000000     1.141000000     5.918000000
H    -1.859000000     1.931000000     5.509000000
H    -1.443000000     0.615000000     6.132000000
