161
-3069.97542
C     0.103000000    -0.301000000     1.461000000
H     0.300000000    -0.348000000     2.529000000
C    -0.309000000     0.927000000     0.892000000
H    -0.416000000     1.811000000     1.515000000
C    -0.464000000     1.061000000    -0.461000000
C    -0.961000000     2.321000000    -1.114000000
H    -1.236000000     2.182000000    -2.162000000
H    -1.745000000     2.813000000    -0.535000000
H    -0.132000000     3.029000000    -1.182000000
C    -0.199000000    -0.038000000    -1.281000000
H    -0.543000000    -0.054000000    -2.312000000
C     0.261000000    -1.241000000    -0.673000000
H     0.438000000    -2.091000000    -1.328000000
C     0.544000000    -1.318000000     0.655000000
C     1.284000000    -2.584000000     1.190000000
O     1.444000000    -3.524000000     0.460000000
O     1.629000000    -2.645000000     2.347000000
O    -1.168000000     5.180000000     3.802000000
H    -1.251000000     4.548000000     4.516000000
H    -0.762000000     5.946000000     4.208000000
O     1.148000000    -6.149000000    -2.929000000
H     0.322000000    -6.595000000    -2.746000000
H     1.732000000    -6.427000000    -2.224000000
O    -4.376000000     1.263000000     4.582000000
H    -3.495000000     1.102000000     4.921000000
H    -4.288000000     1.173000000     3.633000000
O    -3.352000000     5.634000000    -0.737000000
H    -3.526000000     5.130000000     0.059000000
H    -2.568000000     5.230000000    -1.109000000
O    -3.316000000     2.797000000    -6.130000000
H    -3.399000000     1.930000000    -5.733000000
H    -3.283000000     2.627000000    -7.072000000
O     0.853000000     5.448000000    -4.899000000
H     0.768000000     4.496000000    -4.956000000
H     0.254000000     5.782000000    -5.567000000
O     1.375000000     7.376000000    -3.013000000
H     1.171000000     6.628000000    -3.574000000
H     2.296000000     7.565000000    -3.189000000
O     2.286000000    -6.082000000    -0.144000000
H     2.087000000    -5.208000000     0.193000000
H     2.071000000    -6.672000000     0.578000000
O     5.374000000    -2.363000000    -2.735000000
H     4.647000000    -2.858000000    -2.356000000
H     5.963000000    -2.201000000    -1.998000000
O    -3.036000000     3.982000000     1.427000000
H    -3.319000000     4.369000000     2.256000000
H    -3.270000000     3.057000000     1.503000000
O    -0.390000000     5.251000000     0.723000000
H    -0.758000000     6.099000000     0.973000000
H    -0.905000000     4.612000000     1.216000000
O    -0.162000000    -4.620000000     3.475000000
H    -0.467000000    -3.795000000     3.854000000
H     0.420000000    -4.354000000     2.763000000
O    -1.440000000     5.166000000    -3.111000000
H    -0.550000000     5.511000000    -3.050000000
H    -1.560000000     4.975000000    -4.041000000
O     0.534000000     2.547000000    -4.223000000
H     0.002000000     2.640000000    -3.432000000
H     1.371000000     2.204000000    -3.910000000
O     3.513000000     1.465000000     0.472000000
H     3.073000000     1.109000000    -0.299000000
H     3.039000000     2.274000000     0.667000000
O     5.150000000    -6.653000000     0.007000000
H     4.209000000    -6.478000000     0.028000000
H     5.255000000    -7.456000000     0.517000000
O    -1.365000000    -2.552000000     4.692000000
H    -1.584000000    -1.885000000     4.042000000
H    -0.588000000    -2.209000000     5.134000000
O    -2.863000000    -3.264000000    -0.506000000
H    -2.381000000    -2.591000000    -0.987000000
H    -2.225000000    -3.963000000    -0.367000000
O     0.938000000     3.265000000     3.566000000
H     1.394000000     3.306000000     2.725000000
H     0.181000000     3.841000000     3.456000000
O    -4.365000000    -1.994000000     1.428000000
H    -3.888000000    -2.442000000     0.730000000
H    -3.684000000    -1.702000000     2.035000000
O    -2.942000000    -4.719000000     2.881000000
H    -3.277000000    -4.527000000     3.757000000
H    -1.990000000    -4.668000000     2.972000000
O     1.948000000    -3.651000000     7.117000000
H     1.079000000    -3.946000000     7.389000000
H     1.777000000    -2.977000000     6.459000000
O     2.422000000     3.947000000     1.216000000
H     2.708000000     4.691000000     1.746000000
H     1.956000000     4.343000000     0.479000000
O     3.372000000     3.139000000    -2.267000000
H     2.701000000     3.694000000    -1.871000000
H     4.120000000     3.207000000    -1.674000000
O     5.514000000    -2.999000000     0.461000000
H     6.100000000    -2.320000000     0.128000000
H     4.734000000    -2.934000000    -0.090000000
O    -1.523000000     0.569000000     5.094000000
H    -1.553000000     0.155000000     5.957000000
H    -1.275000000     1.476000000     5.273000000
O    -2.333000000    -0.627000000     2.964000000
H    -1.879000000    -0.058000000     2.342000000
H    -2.155000000    -0.237000000     3.820000000
O     0.760000000    -7.743000000     1.784000000
H    -0.137000000    -7.898000000     2.080000000
H     1.299000000    -7.904000000     2.558000000
O    -0.886000000    -4.903000000     0.089000000
H    -0.616000000    -5.572000000    -0.540000000
H    -0.080000000    -4.432000000     0.298000000
O     3.121000000    -0.576000000    -1.894000000
H     2.799000000    -0.003000000    -2.590000000
H     2.858000000    -1.455000000    -2.167000000
O     4.116000000    -3.600000000     2.944000000
H     4.568000000    -3.371000000     2.132000000
H     3.220000000    -3.289000000     2.816000000
O     1.335000000    -1.813000000     4.993000000
H     1.488000000    -0.875000000     4.878000000
H     1.590000000    -2.202000000     4.156000000
O    -2.483000000     0.594000000    -4.619000000
H    -1.956000000    -0.201000000    -4.697000000
H    -2.761000000     0.608000000    -3.703000000
O    -1.424000000    -1.834000000    -4.386000000
H    -1.497000000    -2.275000000    -5.232000000
H    -0.485000000    -1.826000000    -4.201000000
O     3.500000000     1.007000000    -4.065000000
H     4.341000000     0.564000000    -3.949000000
H     3.592000000     1.825000000    -3.577000000
O    -1.519000000     4.669000000    -5.855000000
H    -1.017000000     4.458000000    -6.643000000
H    -2.153000000     3.955000000    -5.777000000
O     1.621000000    -3.147000000    -4.353000000
H     1.959000000    -3.788000000    -3.727000000
H     1.132000000    -3.670000000    -4.989000000
O    -5.652000000     1.892000000    -0.656000000
H    -5.471000000     2.762000000    -1.012000000
H    -5.302000000     1.288000000    -1.311000000
O     1.854000000     0.896000000     4.901000000
H     2.536000000     1.080000000     4.254000000
H     1.268000000     1.651000000     4.852000000
O     3.290000000    -3.794000000    -1.586000000
H     3.338000000    -4.720000000    -1.824000000
H     2.626000000    -3.758000000    -0.897000000
O    -4.607000000     0.331000000    -2.622000000
H    -4.920000000    -0.193000000    -3.360000000
H    -4.730000000    -0.233000000    -1.859000000
O    -0.539000000     1.562000000    -6.540000000
H    -1.367000000     1.223000000    -6.199000000
H    -0.135000000     2.002000000    -5.793000000
O     2.596000000    -1.143000000    -5.994000000
H     3.232000000    -0.501000000    -5.679000000
H     2.632000000    -1.852000000    -5.352000000
O     1.230000000     5.058000000    -1.322000000
H     1.273000000     5.955000000    -1.654000000
H     0.420000000     5.031000000    -0.812000000
O     3.243000000    -0.147000000     2.688000000
H     3.273000000     0.453000000     1.943000000
H     2.592000000    -0.804000000     2.440000000
O    -4.331000000     1.371000000     1.879000000
H    -5.044000000     1.432000000     1.243000000
H    -4.053000000     0.456000000     1.840000000
O     6.030000000    -3.854000000     4.903000000
H     5.428000000    -3.820000000     4.159000000
H     6.888000000    -4.016000000     4.510000000
O     5.366000000    -0.810000000     4.094000000
H     4.964000000    -1.520000000     4.594000000
H     4.646000000    -0.441000000     3.582000000
