161
-3053.28645
C     1.237000000     0.596000000     0.581000000
H     2.225000000     0.951000000     0.862000000
C     0.698000000     1.014000000    -0.584000000
H     1.270000000     1.605000000    -1.294000000
C    -0.509000000     0.375000000    -1.018000000
C    -1.091000000     0.726000000    -2.395000000
H    -0.318000000     0.433000000    -3.109000000
H    -2.045000000     0.226000000    -2.579000000
H    -1.300000000     1.789000000    -2.533000000
C    -1.181000000    -0.569000000    -0.228000000
H    -2.084000000    -1.060000000    -0.583000000
C    -0.674000000    -0.943000000     1.022000000
H    -1.099000000    -1.808000000     1.525000000
C     0.535000000    -0.294000000     1.464000000
C     1.235000000    -0.749000000     2.696000000
O     0.629000000    -1.428000000     3.478000000
O     2.471000000    -0.858000000     2.697000000
O     3.286000000    -3.385000000     3.046000000
H     3.237000000    -3.585000000     3.981000000
H     2.860000000    -2.532000000     2.961000000
O     1.430000000     3.715000000     3.797000000
H     0.881000000     2.966000000     3.566000000
H     2.305000000     3.473000000     3.492000000
O     0.440000000     0.215000000    -5.502000000
H     0.333000000     0.014000000    -6.432000000
H     0.566000000    -0.638000000    -5.086000000
O     2.355000000    -1.265000000    -1.453000000
H     1.751000000    -0.779000000    -0.892000000
H     2.977000000    -0.607000000    -1.762000000
O     6.349000000     2.130000000     2.616000000
H     6.023000000     2.362000000     3.486000000
H     5.907000000     1.308000000     2.406000000
O     1.330000000    -6.207000000     1.434000000
H     0.717000000    -5.498000000     1.240000000
H     0.826000000    -7.007000000     1.285000000
O     3.726000000     5.129000000    -2.907000000
H     4.516000000     4.729000000    -2.543000000
H     3.081000000     4.422000000    -2.914000000
O    -3.696000000    -2.509000000    -4.789000000
H    -3.341000000    -1.983000000    -5.506000000
H    -4.320000000    -1.928000000    -4.353000000
O     1.847000000     3.251000000    -3.505000000
H     0.980000000     3.524000000    -3.806000000
H     1.949000000     2.362000000    -3.845000000
O    -0.757000000     4.347000000    -1.496000000
H    -1.188000000     5.196000000    -1.394000000
H    -0.673000000     4.233000000    -2.442000000
O     3.772000000     1.002000000    -2.117000000
H     3.632000000     1.552000000    -2.888000000
H     4.533000000     1.387000000    -1.683000000
O     1.847000000    -1.458000000     5.724000000
H     1.166000000    -0.964000000     6.182000000
H     1.618000000    -1.380000000     4.798000000
O     3.505000000     3.674000000     1.837000000
H     3.250000000     3.733000000     0.916000000
H     4.446000000     3.848000000     1.836000000
O    -0.503000000     1.634000000     3.774000000
H    -1.345000000     1.249000000     4.015000000
H     0.051000000     1.499000000     4.544000000
O     0.897000000    -4.891000000     7.111000000
H     0.621000000    -4.355000000     7.854000000
H     0.259000000    -4.697000000     6.425000000
O    -5.486000000    -1.532000000     5.002000000
H    -4.839000000    -1.312000000     4.333000000
H    -5.657000000    -2.465000000     4.873000000
O    -1.728000000     1.566000000    -5.575000000
H    -2.358000000     1.095000000    -5.031000000
H    -0.924000000     1.049000000    -5.512000000
O    -2.863000000     0.092000000     4.092000000
H    -2.753000000    -0.573000000     3.412000000
H    -3.321000000     0.809000000     3.653000000
O    -1.378000000    -4.702000000     1.159000000
H    -2.210000000    -4.422000000     0.777000000
H    -0.715000000    -4.381000000     0.549000000
O     3.611000000    -4.809000000     0.835000000
H     3.678000000    -4.239000000     1.601000000
H     2.889000000    -5.403000000     1.041000000
O    -0.740000000     3.948000000     1.344000000
H    -0.640000000     4.333000000     0.474000000
H    -0.757000000     3.003000000     1.187000000
O     4.684000000     3.774000000     4.527000000
H     4.127000000     2.996000000     4.493000000
H     4.106000000     4.469000000     4.842000000
O     2.917000000     1.132000000    -5.001000000
H     2.036000000     0.784000000    -5.138000000
H     3.433000000     0.374000000    -4.725000000
O     5.883000000     3.871000000    -2.207000000
H     5.617000000     3.450000000    -1.389000000
H     6.774000000     4.179000000    -2.038000000
O    -0.595000000    -3.766000000    -6.269000000
H    -0.173000000    -3.297000000    -5.549000000
H    -0.866000000    -4.600000000    -5.885000000
O     5.295000000     2.243000000    -0.236000000
H     5.803000000     2.924000000     0.205000000
H     4.967000000     1.691000000     0.473000000
O    -5.207000000     2.177000000    -2.636000000
H    -5.416000000     3.111000000    -2.589000000
H    -4.531000000     2.050000000    -1.971000000
O    -3.584000000     4.940000000    -3.719000000
H    -2.908000000     4.334000000    -3.416000000
H    -3.208000000     5.349000000    -4.498000000
O    -4.374000000    -4.359000000     0.269000000
H    -4.206000000    -3.830000000    -0.510000000
H    -5.306000000    -4.570000000     0.219000000
O    -4.372000000    -2.564000000     2.393000000
H    -4.622000000    -3.379000000     1.959000000
H    -3.546000000    -2.769000000     2.831000000
O     0.270000000     1.204000000     6.447000000
H    -0.455000000     1.012000000     7.041000000
H     1.026000000     1.323000000     7.022000000
O    -0.848000000     3.915000000    -4.339000000
H    -0.387000000     4.291000000    -5.089000000
H    -1.286000000     3.140000000    -4.691000000
O     0.061000000    -4.477000000     4.285000000
H     0.336000000    -3.562000000     4.337000000
H     0.766000000    -4.913000000     3.807000000
O     3.275000000     1.382000000     4.428000000
H     3.127000000     0.894000000     3.618000000
H     3.039000000     0.768000000     5.124000000
O    -2.448000000    -4.310000000    -2.458000000
H    -2.670000000    -3.569000000    -3.022000000
H    -1.500000000    -4.406000000    -2.550000000
O     0.909000000    -3.493000000     0.353000000
H     1.761000000    -3.846000000     0.095000000
H     1.073000000    -2.563000000     0.509000000
O    -1.971000000    -2.709000000     3.661000000
H    -1.228000000    -2.105000000     3.625000000
H    -1.581000000    -3.556000000     3.877000000
O     0.741000000    -2.062000000    -3.866000000
H     0.683000000    -2.964000000    -3.550000000
H     1.305000000    -1.621000000    -3.231000000
O     3.063000000    -4.084000000    -1.649000000
H     3.735000000    -4.302000000    -1.004000000
H     2.947000000    -3.137000000    -1.563000000
O    -5.220000000    -0.324000000    -3.974000000
H    -5.408000000     0.041000000    -4.838000000
H    -5.099000000     0.441000000    -3.411000000
O    -4.665000000    -1.958000000    -1.492000000
H    -4.880000000    -1.405000000    -2.243000000
H    -4.672000000    -1.361000000    -0.744000000
O     5.597000000    -0.705000000     5.567000000
H     6.340000000    -0.131000000     5.753000000
H     4.892000000    -0.110000000     5.310000000
O     6.058000000    -2.444000000     2.351000000
H     5.315000000    -2.844000000     2.804000000
H     6.771000000    -2.471000000     2.989000000
O    -4.736000000    -0.461000000     0.618000000
H    -4.925000000     0.306000000     1.158000000
H    -4.600000000    -1.169000000     1.246000000
O     4.845000000    -0.153000000     1.628000000
H     5.308000000    -0.972000000     1.805000000
H     3.999000000    -0.258000000     2.064000000
O    -2.762000000    -1.060000000     6.579000000
H    -1.861000000    -1.147000000     6.890000000
H    -2.675000000    -0.740000000     5.681000000
O    -3.675000000     2.380000000    -0.361000000
H    -2.928000000     2.866000000    -0.011000000
H    -3.505000000     1.471000000    -0.114000000
O     3.095000000    -3.715000000     6.056000000
H     2.718000000    -2.855000000     6.243000000
H     2.482000000    -4.336000000     6.450000000
