161
-3049.50644
C     1.164000000    -0.161000000     0.921000000
H     2.085000000    -0.302000000     1.479000000
C     1.276000000    -0.006000000    -0.467000000
H     2.251000000    -0.054000000    -0.945000000
C     0.111000000     0.126000000    -1.214000000
C     0.096000000     0.047000000    -2.760000000
H     0.943000000     0.504000000    -3.276000000
H     0.020000000    -1.002000000    -3.052000000
H    -0.775000000     0.572000000    -3.159000000
C    -1.106000000     0.333000000    -0.535000000
H    -2.000000000     0.542000000    -1.117000000
C    -1.167000000     0.357000000     0.866000000
H    -2.173000000     0.491000000     1.257000000
C    -0.041000000    -0.013000000     1.627000000
C    -0.177000000    -0.324000000     3.095000000
O    -1.293000000    -0.471000000     3.515000000
O     0.791000000    -0.632000000     3.762000000
O     5.678000000    -0.318000000    -3.753000000
H     5.032000000    -0.701000000    -4.346000000
H     6.262000000     0.180000000    -4.325000000
O    -0.266000000    -4.012000000    -3.775000000
H    -1.182000000    -4.144000000    -4.022000000
H    -0.307000000    -3.514000000    -2.959000000
O     2.171000000     3.551000000    -1.337000000
H     2.802000000     4.258000000    -1.204000000
H     2.598000000     2.777000000    -0.972000000
O     2.137000000     0.397000000    -6.016000000
H     2.427000000     1.132000000    -5.476000000
H     2.528000000    -0.372000000    -5.603000000
O    -2.135000000    -0.316000000    -6.916000000
H    -2.528000000    -0.165000000    -7.775000000
H    -1.484000000    -1.000000000    -7.067000000
O    -4.078000000    -0.854000000    -5.018000000
H    -3.251000000    -0.882000000    -5.499000000
H    -4.155000000     0.055000000    -4.727000000
O     5.244000000    -1.297000000     4.051000000
H     4.945000000    -0.692000000     4.730000000
H     4.639000000    -2.037000000     4.106000000
O    -0.800000000     3.448000000     0.825000000
H    -1.085000000     2.554000000     0.636000000
H    -1.258000000     3.680000000     1.633000000
O     1.155000000    -3.869000000    -6.069000000
H     1.104000000    -4.090000000    -5.139000000
H     1.701000000    -4.557000000    -6.449000000
O     0.423000000     0.332000000     6.260000000
H    -0.433000000     0.712000000     6.458000000
H     0.366000000     0.082000000     5.338000000
O    -3.650000000    -1.400000000    -1.853000000
H    -2.858000000    -1.325000000    -2.386000000
H    -4.060000000    -2.214000000    -2.146000000
O     2.592000000    -2.765000000     4.156000000
H     1.996000000    -3.501000000     4.296000000
H     2.031000000    -2.063000000     3.826000000
O    -1.026000000    -2.743000000    -7.516000000
H    -0.677000000    -2.909000000    -8.391000000
H    -0.397000000    -3.156000000    -6.924000000
O    -3.706000000    -3.411000000     4.278000000
H    -3.405000000    -3.449000000     3.371000000
H    -2.971000000    -3.030000000     4.759000000
O    -2.761000000    -1.262000000     8.048000000
H    -3.665000000    -1.562000000     7.958000000
H    -2.543000000    -0.897000000     7.190000000
O    -1.492000000     3.862000000    -6.606000000
H    -1.010000000     4.308000000    -5.911000000
H    -0.964000000     3.089000000    -6.806000000
O     5.225000000     0.969000000     1.735000000
H     5.128000000     0.143000000     2.211000000
H     6.079000000     1.304000000     2.008000000
O    -2.834000000    -2.607000000     1.682000000
H    -2.989000000    -1.865000000     1.097000000
H    -3.030000000    -3.377000000     1.149000000
O     2.782000000     1.294000000     3.640000000
H     3.342000000     1.189000000     4.410000000
H     2.232000000     0.511000000     3.636000000
O     0.296000000    -3.437000000     2.109000000
H    -0.168000000    -4.104000000     2.616000000
H    -0.271000000    -2.667000000     2.149000000
O     0.016000000    -4.499000000     4.859000000
H    -0.002000000    -5.127000000     5.581000000
H    -0.661000000    -4.807000000     4.256000000
O    -4.853000000    -0.663000000     0.442000000
H    -5.804000000    -0.670000000     0.332000000
H    -4.509000000    -0.870000000    -0.427000000
O     0.740000000    -6.183000000    -2.163000000
H     0.395000000    -5.446000000    -2.667000000
H     1.394000000    -6.582000000    -2.738000000
O     3.251000000     2.130000000    -3.984000000
H     3.738000000     1.568000000    -3.381000000
H     2.881000000     2.815000000    -3.427000000
O    -0.109000000     1.639000000    -6.970000000
H    -0.673000000     0.875000000    -6.848000000
H     0.781000000     1.288000000    -6.927000000
O    -4.050000000     3.390000000     3.737000000
H    -3.275000000     3.720000000     3.282000000
H    -3.764000000     2.564000000     4.127000000
O     4.500000000    -4.401000000     2.937000000
H     3.816000000    -3.894000000     3.374000000
H     4.764000000    -3.858000000     2.195000000
O     4.552000000    -3.253000000     0.349000000
H     3.705000000    -3.649000000     0.147000000
H     4.402000000    -2.311000000     0.271000000
O     4.434000000     1.950000000    -0.708000000
H     5.047000000     2.665000000    -0.882000000
H     4.669000000     1.641000000     0.167000000
O    -5.157000000     3.788000000    -1.025000000
H    -5.055000000     4.272000000    -1.845000000
H    -4.756000000     2.936000000    -1.199000000
O    -1.282000000    -2.148000000     5.511000000
H    -1.270000000    -1.523000000     4.787000000
H    -0.574000000    -2.760000000     5.311000000
O     5.640000000    -0.702000000    -1.151000000
H     5.089000000     0.076000000    -1.068000000
H     5.711000000    -0.846000000    -2.095000000
O     3.165000000    -1.901000000    -4.923000000
H     2.720000000    -2.476000000    -5.546000000
H     3.871000000    -2.438000000    -4.564000000
O    -4.588000000    -0.444000000     3.181000000
H    -3.875000000    -1.077000000     3.102000000
H    -4.865000000    -0.281000000     2.279000000
O    -1.789000000     4.424000000     3.151000000
H    -2.223000000     5.207000000     2.812000000
H    -1.182000000     4.754000000     3.813000000
O    -2.695000000     5.500000000    -0.890000000
H    -2.678000000     4.572000000    -0.654000000
H    -1.940000000     5.876000000    -0.438000000
O    -2.872000000    -3.939000000    -4.397000000
H    -3.156000000    -3.163000000    -4.880000000
H    -3.544000000    -4.063000000    -3.727000000
O    -3.006000000     1.075000000     4.776000000
H    -3.768000000     0.500000000     4.707000000
H    -2.310000000     0.607000000     4.314000000
O    -0.365000000     3.506000000    -2.129000000
H     0.591000000     3.458000000    -2.100000000
H    -0.620000000     3.743000000    -1.237000000
O     1.876000000    -3.568000000     0.056000000
H     1.408000000    -3.625000000     0.890000000
H     1.297000000    -3.058000000    -0.509000000
O    -3.429000000     2.763000000    -3.604000000
H    -3.671000000     3.259000000    -4.386000000
H    -2.477000000     2.840000000    -3.556000000
O    -2.113000000     1.837000000     7.220000000
H    -2.863000000     2.047000000     7.777000000
H    -2.492000000     1.692000000     6.353000000
O    -0.658000000     5.101000000    -4.452000000
H    -0.943000000     4.860000000    -3.571000000
H     0.288000000     5.229000000    -4.372000000
O     2.298000000    -1.813000000     6.721000000
H     2.493000000    -2.012000000     5.805000000
H     1.417000000    -1.439000000     6.703000000
O     4.232000000     0.172000000     5.959000000
H     3.554000000     0.075000000     6.628000000
H     4.870000000     0.769000000     6.351000000
O     2.175000000     3.088000000     1.731000000
H     1.494000000     2.763000000     1.142000000
H     2.355000000     2.352000000     2.317000000
O    -0.800000000    -3.702000000    -1.026000000
H    -0.727000000    -4.653000000    -1.105000000
H    -1.384000000    -3.568000000    -0.280000000
O     4.746000000     3.495000000     3.295000000
H     3.848000000     3.478000000     2.965000000
H     5.173000000     2.752000000     2.868000000
