161
-3049.34300
C     1.236000000    -0.646000000     0.586000000
H     2.253000000    -0.990000000     0.756000000
C     0.691000000    -0.883000000    -0.729000000
H     1.300000000    -1.510000000    -1.376000000
C    -0.401000000    -0.187000000    -1.154000000
C    -1.037000000    -0.425000000    -2.484000000
H    -1.578000000    -1.370000000    -2.396000000
H    -1.760000000     0.298000000    -2.868000000
H    -0.236000000    -0.612000000    -3.202000000
C    -1.079000000     0.642000000    -0.248000000
H    -1.988000000     1.056000000    -0.675000000
C    -0.619000000     0.852000000     1.061000000
H    -1.175000000     1.512000000     1.722000000
C     0.612000000     0.270000000     1.440000000
C     1.121000000     0.568000000     2.824000000
O     0.513000000     1.412000000     3.522000000
O     2.143000000     0.016000000     3.224000000
O    -2.938000000    -5.715000000    -2.760000000
H    -2.755000000    -6.599000000    -2.441000000
H    -2.110000000    -5.247000000    -2.658000000
O     4.226000000     1.055000000     2.035000000
H     3.690000000     1.841000000     2.135000000
H     3.699000000     0.355000000     2.420000000
O     1.676000000    -3.929000000    -4.625000000
H     2.248000000    -4.696000000    -4.604000000
H     2.089000000    -3.339000000    -5.255000000
O     1.178000000    -4.434000000    -0.512000000
H     1.979000000    -4.355000000     0.007000000
H     0.643000000    -5.066000000    -0.033000000
O     2.167000000    -4.884000000     5.380000000
H     1.242000000    -4.947000000     5.617000000
H     2.190000000    -4.246000000     4.666000000
O    -0.812000000     2.792000000     7.224000000
H    -1.667000000     2.455000000     6.957000000
H    -0.263000000     2.695000000     6.446000000
O    -4.011000000    -3.373000000    -0.933000000
H    -4.582000000    -3.414000000    -0.165000000
H    -3.125000000    -3.338000000    -0.570000000
O    -0.417000000    -4.751000000    -2.654000000
H     0.141000000    -4.565000000    -1.899000000
H    -0.088000000    -4.173000000    -3.343000000
O     1.203000000     0.849000000     8.289000000
H     1.478000000     0.071000000     8.775000000
H     1.413000000     0.648000000     7.377000000
O    -5.498000000     0.434000000    -1.922000000
H    -5.237000000    -0.312000000    -1.381000000
H    -6.119000000     0.067000000    -2.551000000
O     3.535000000     0.873000000    -1.786000000
H     3.090000000     0.091000000    -2.113000000
H     4.280000000     0.989000000    -2.375000000
O    -2.380000000    -2.025000000    -5.173000000
H    -2.369000000    -1.136000000    -4.818000000
H    -3.288000000    -2.311000000    -5.075000000
O    -4.135000000     1.202000000    -7.091000000
H    -3.196000000     1.335000000    -6.968000000
H    -4.465000000     0.998000000    -6.216000000
O     2.507000000    -2.948000000     3.623000000
H     2.415000000    -2.000000000     3.531000000
H     2.969000000    -3.222000000     2.831000000
O    -1.085000000     1.972000000    -6.329000000
H    -0.157000000     1.981000000    -6.564000000
H    -1.457000000     2.721000000    -6.793000000
O     2.334000000     3.363000000     2.211000000
H     2.485000000     3.125000000     1.296000000
H     1.382000000     3.426000000     2.289000000
O     6.459000000     1.688000000     0.161000000
H     5.976000000     1.145000000     0.785000000
H     6.007000000     1.554000000    -0.672000000
O    -5.226000000    -0.793000000     0.566000000
H    -6.033000000    -1.280000000     0.736000000
H    -4.540000000    -1.315000000     0.981000000
O    -4.633000000     1.336000000     2.793000000
H    -3.810000000     0.873000000     2.946000000
H    -4.446000000     1.921000000     2.059000000
O     1.645000000     1.512000000    -5.629000000
H     1.530000000     1.807000000    -4.726000000
H     2.515000000     1.112000000    -5.641000000
O    -4.424000000     5.549000000     1.508000000
H    -4.539000000     4.600000000     1.458000000
H    -3.626000000     5.720000000     1.009000000
O    -0.853000000    -3.911000000    -7.083000000
H    -1.631000000    -4.251000000    -7.524000000
H    -1.182000000    -3.557000000    -6.257000000
O    -0.999000000    -0.739000000     6.534000000
H    -0.157000000    -0.668000000     6.085000000
H    -0.837000000    -0.375000000     7.405000000
O     5.032000000    -2.212000000     2.251000000
H     5.309000000    -2.288000000     3.164000000
H     5.251000000    -1.312000000     2.009000000
O    -3.812000000     3.026000000     0.613000000
H    -3.885000000     2.783000000    -0.310000000
H    -2.925000000     3.374000000     0.700000000
O    -2.166000000     0.195000000     3.638000000
H    -2.355000000    -0.137000000     4.516000000
H    -1.236000000     0.421000000     3.663000000
O    -1.350000000    -2.742000000     0.757000000
H    -0.757000000    -2.131000000     0.321000000
H    -0.866000000    -3.567000000     0.785000000
O     1.525000000    -0.791000000     5.760000000
H     1.681000000    -0.444000000     4.881000000
H     2.334000000    -1.250000000     5.984000000
O    -3.954000000     2.780000000    -2.300000000
H    -4.616000000     2.148000000    -2.020000000
H    -4.457000000     3.523000000    -2.631000000
O     0.521000000     3.172000000    -0.491000000
H     1.463000000     3.232000000    -0.647000000
H     0.311000000     2.251000000    -0.642000000
O     5.924000000    -2.039000000     4.914000000
H     6.673000000    -2.551000000     5.220000000
H     5.195000000    -2.331000000     5.461000000
O    -4.396000000    -2.154000000    -3.393000000
H    -4.199000000    -2.503000000    -2.524000000
H    -4.822000000    -2.878000000    -3.852000000
O     3.279000000     3.333000000    -0.318000000
H     3.461000000     4.050000000    -0.925000000
H     3.524000000     2.543000000    -0.799000000
O    -1.942000000     3.337000000    -3.818000000
H    -2.592000000     3.259000000    -3.119000000
H    -1.823000000     2.443000000    -4.136000000
O     0.648000000     5.201000000     4.949000000
H     1.285000000     5.762000000     4.506000000
H     1.071000000     4.344000000     4.990000000
O     1.476000000     2.619000000     5.475000000
H     2.421000000     2.477000000     5.532000000
H     1.202000000     2.107000000     4.715000000
O     3.931000000    -1.305000000     7.287000000
H     4.158000000    -2.235000000     7.274000000
H     4.416000000    -0.950000000     8.031000000
O    -4.240000000     0.376000000    -4.507000000
H    -4.469000000     0.987000000    -3.806000000
H    -4.311000000    -0.489000000    -4.103000000
O    -1.211000000    -0.844000000    -7.776000000
H    -0.867000000     0.034000000    -7.615000000
H    -1.426000000    -1.180000000    -6.906000000
O     0.411000000     4.900000000    -4.017000000
H    -0.356000000     4.341000000    -3.894000000
H     0.106000000     5.606000000    -4.586000000
O     2.586000000    -1.656000000    -5.786000000
H     3.251000000    -0.973000000    -5.708000000
H     2.235000000    -1.550000000    -6.670000000
O     3.332000000    -1.567000000    -3.032000000
H     2.710000000    -1.901000000    -3.679000000
H     3.781000000    -2.347000000    -2.706000000
O     3.999000000     1.671000000     6.170000000
H     4.881000000     1.472000000     6.483000000
H     3.528000000     0.840000000     6.238000000
O     3.983000000    -4.078000000     0.392000000
H     4.579000000    -3.644000000     1.004000000
H     4.168000000    -3.667000000    -0.453000000
O    -1.450000000     4.977000000     0.375000000
H    -1.246000000     4.759000000     1.285000000
H    -0.734000000     4.591000000    -0.130000000
O     5.322000000    -3.559000000    -2.294000000
H     5.728000000    -2.931000000    -2.891000000
H     6.026000000    -3.811000000    -1.696000000
O    -3.279000000    -2.097000000     2.371000000
H    -2.611000000    -2.489000000     1.809000000
H    -2.981000000    -1.198000000     2.507000000
O    -0.750000000     3.838000000     2.866000000
H    -0.405000000     2.977000000     3.106000000
H    -0.906000000     4.274000000     3.703000000
