161
-3034.28769
C     0.848000000    -0.504000000     1.005000000
H     1.466000000    -0.977000000     1.764000000
C     0.854000000    -0.918000000    -0.297000000
H     1.611000000    -1.661000000    -0.531000000
C    -0.046000000    -0.367000000    -1.184000000
C     0.166000000    -0.582000000    -2.619000000
H     0.801000000    -1.442000000    -2.842000000
H    -0.752000000    -0.757000000    -3.183000000
H     0.660000000     0.259000000    -3.111000000
C    -1.005000000     0.568000000    -0.702000000
H    -1.693000000     0.984000000    -1.434000000
C    -0.979000000     0.958000000     0.658000000
H    -1.748000000     1.646000000     0.999000000
C     0.031000000     0.457000000     1.484000000
C    -0.022000000     0.767000000     2.976000000
O    -0.997000000     1.338000000     3.334000000
O     0.809000000     0.239000000     3.677000000
O    -3.480000000    -3.205000000    -2.203000000
H    -3.685000000    -4.117000000    -1.999000000
H    -2.616000000    -3.062000000    -1.817000000
O     3.287000000     1.086000000     4.274000000
H     3.878000000     0.648000000     3.661000000
H     2.416000000     0.774000000     4.032000000
O     3.078000000    -4.364000000    -1.901000000
H     3.205000000    -5.301000000    -1.752000000
H     3.358000000    -4.226000000    -2.806000000
O     3.026000000    -3.803000000     1.812000000
H     2.670000000    -3.090000000     2.341000000
H     3.451000000    -4.382000000     2.445000000
O    -1.111000000     4.909000000     5.831000000
H    -0.959000000     3.967000000     5.756000000
H    -2.041000000     4.986000000     6.043000000
O    -3.017000000    -1.916000000     3.774000000
H    -2.641000000    -1.766000000     4.641000000
H    -2.638000000    -2.748000000     3.490000000
O     3.579000000     0.632000000    -3.621000000
H     3.612000000    -0.022000000    -2.922000000
H     3.797000000     1.457000000    -3.187000000
O     0.052000000    -4.154000000    -0.697000000
H     0.368000000    -3.461000000    -0.117000000
H     0.848000000    -4.554000000    -1.046000000
O    -2.931000000     2.697000000     7.621000000
H    -2.373000000     2.254000000     6.982000000
H    -2.540000000     2.484000000     8.468000000
O     3.821000000    -1.532000000    -1.822000000
H     3.837000000    -2.474000000    -1.988000000
H     3.982000000    -1.451000000    -0.882000000
O    -3.697000000    -0.225000000    -6.277000000
H    -4.143000000    -1.017000000    -6.577000000
H    -3.637000000    -0.329000000    -5.327000000
O     1.320000000     2.315000000    -4.665000000
H     1.269000000     2.384000000    -5.618000000
H     2.030000000     1.693000000    -4.507000000
O     0.352000000    -4.922000000     4.150000000
H    -0.282000000    -4.612000000     4.797000000
H     1.107000000    -4.343000000     4.260000000
O    -1.494000000     3.300000000    -3.092000000
H    -1.594000000     4.169000000    -3.480000000
H    -0.890000000     2.844000000    -3.678000000
O     4.172000000     3.319000000     5.531000000
H     3.867000000     2.511000000     5.120000000
H     3.379000000     3.842000000     5.650000000
O    -5.333000000     2.800000000     2.024000000
H    -6.263000000     2.588000000     1.946000000
H    -4.942000000     2.023000000     2.424000000
O    -5.039000000     5.375000000     2.764000000
H    -4.931000000     4.514000000     2.359000000
H    -5.053000000     5.196000000     3.704000000
O    -3.924000000     3.816000000    -3.654000000
H    -4.438000000     3.622000000    -2.870000000
H    -3.055000000     3.462000000    -3.465000000
O     0.962000000     2.650000000    -1.313000000
H     0.787000000     1.807000000    -1.732000000
H     0.178000000     3.171000000    -1.489000000
O     2.389000000    -6.567000000     0.821000000
H     1.933000000    -5.772000000     1.097000000
H     3.118000000    -6.251000000     0.287000000
O    -2.914000000    -3.458000000    -5.064000000
H    -3.784000000    -3.385000000    -5.456000000
H    -3.041000000    -3.208000000    -4.149000000
O     5.211000000    -2.315000000     0.451000000
H     4.360000000    -2.657000000     0.724000000
H     5.774000000    -3.087000000     0.400000000
O     0.730000000    -1.517000000     7.622000000
H     1.396000000    -1.519000000     8.310000000
H     1.005000000    -0.823000000     7.023000000
O     1.448000000    -2.430000000     4.176000000
H     2.133000000    -2.531000000     4.836000000
H     1.288000000    -1.487000000     4.139000000
O    -0.778000000     2.231000000     5.843000000
H     0.087000000     1.873000000     6.041000000
H    -0.899000000     2.063000000     4.909000000
O    -2.408000000    -1.833000000     0.463000000
H    -2.255000000    -0.939000000     0.156000000
H    -1.687000000    -2.004000000     1.069000000
O     1.971000000     1.216000000     6.849000000
H     2.467000000     1.152000000     6.033000000
H     2.128000000     2.110000000     7.155000000
O    -5.284000000     2.863000000    -1.512000000
H    -5.328000000     2.486000000    -0.633000000
H    -5.631000000     2.179000000    -2.084000000
O     0.699000000     5.616000000     0.743000000
H     1.509000000     5.520000000     0.242000000
H     0.899000000     5.232000000     1.597000000
O    -4.629000000    -1.426000000    -3.812000000
H    -4.210000000    -1.948000000    -3.128000000
H    -5.305000000    -2.001000000    -4.172000000
O    -2.043000000    -1.331000000     6.508000000
H    -1.414000000    -1.993000000     6.796000000
H    -1.725000000    -0.515000000     6.894000000
O     2.222000000     2.876000000     1.192000000
H     1.914000000     2.733000000     0.297000000
H     3.165000000     2.719000000     1.149000000
O    -2.896000000     4.132000000    -0.684000000
H    -3.579000000     3.490000000    -0.877000000
H    -2.356000000     4.153000000    -1.474000000
O    -0.489000000    -2.889000000     2.302000000
H    -0.045000000    -2.331000000     2.941000000
H    -0.439000000    -3.768000000     2.677000000
O    -1.540000000     0.821000000    -7.508000000
H    -0.815000000     0.370000000    -7.076000000
H    -2.326000000     0.454000000    -7.102000000
O     1.559000000     4.371000000     5.221000000
H     1.304000000     3.942000000     4.404000000
H     0.732000000     4.661000000     5.606000000
O     3.450000000     4.877000000     2.938000000
H     3.403000000     4.816000000     3.893000000
H     2.912000000     4.149000000     2.626000000
O     0.266000000    -0.434000000    -5.932000000
H     1.187000000    -0.350000000    -6.179000000
H     0.245000000    -0.203000000    -5.003000000
O    -1.609000000     3.127000000    -5.590000000
H    -1.023000000     3.842000000    -5.838000000
H    -1.397000000     2.421000000    -6.201000000
O     3.522000000    -4.130000000    -4.719000000
H     4.440000000    -3.861000000    -4.693000000
H     3.089000000    -3.453000000    -5.240000000
O     4.793000000    -2.862000000     4.077000000
H     5.242000000    -2.024000000     4.190000000
H     5.416000000    -3.513000000     4.402000000
O     2.915000000    -0.472000000    -6.096000000
H     3.349000000    -0.169000000    -5.299000000
H     3.514000000    -1.125000000    -6.461000000
O     2.588000000     4.722000000    -4.042000000
H     2.175000000     5.302000000    -3.402000000
H     2.016000000     3.955000000    -4.074000000
O     0.300000000     3.643000000     2.802000000
H    -0.519000000     3.151000000     2.751000000
H     0.853000000     3.261000000     2.121000000
O    -3.613000000     0.623000000     2.956000000
H    -3.551000000    -0.332000000     2.949000000
H    -2.719000000     0.920000000     3.125000000
O    -0.464000000    -3.090000000    -6.535000000
H    -0.073000000    -2.223000000    -6.427000000
H    -0.969000000    -3.227000000    -5.733000000
O    -1.928000000     5.784000000     1.086000000
H    -1.090000000     5.511000000     0.712000000
H    -2.536000000     5.084000000     0.849000000
O    -4.918000000    -2.669000000     0.678000000
H    -4.034000000    -2.394000000     0.435000000
H    -5.090000000    -2.221000000     1.506000000
