161
-3043.72495
C     1.239000000    -0.342000000     0.768000000
H     2.076000000    -0.731000000     1.343000000
C     1.061000000    -0.555000000    -0.611000000
H     1.793000000    -0.921000000    -1.327000000
C    -0.127000000    -0.220000000    -1.190000000
C    -0.367000000    -0.537000000    -2.619000000
H     0.215000000     0.177000000    -3.206000000
H    -0.047000000    -1.550000000    -2.871000000
H    -1.415000000    -0.408000000    -2.898000000
C    -1.117000000     0.432000000    -0.458000000
H    -1.987000000     0.795000000    -0.999000000
C    -0.948000000     0.647000000     0.867000000
H    -1.765000000     1.138000000     1.390000000
C     0.204000000     0.210000000     1.573000000
C     0.351000000     0.528000000     3.051000000
O    -0.582000000     1.072000000     3.632000000
O     1.417000000     0.258000000     3.557000000
O    -3.206000000    -3.918000000    -3.285000000
H    -4.028000000    -4.349000000    -3.050000000
H    -2.832000000    -3.641000000    -2.449000000
O     4.255000000     1.434000000     3.070000000
H     4.305000000     1.710000000     2.155000000
H     3.410000000     0.989000000     3.141000000
O     1.023000000    -5.682000000    -3.549000000
H     1.336000000    -6.240000000    -4.261000000
H     1.140000000    -4.790000000    -3.875000000
O     3.092000000    -3.394000000     1.209000000
H     3.253000000    -4.288000000     1.509000000
H     2.659000000    -2.968000000     1.949000000
O    -2.454000000     2.971000000     6.973000000
H    -2.665000000     2.209000000     7.513000000
H    -1.622000000     2.746000000     6.556000000
O    -3.713000000    -1.550000000     2.788000000
H    -3.996000000    -2.244000000     3.383000000
H    -3.316000000    -2.014000000     2.051000000
O     2.006000000     2.262000000    -3.063000000
H     2.405000000     1.464000000    -3.410000000
H     2.695000000     2.923000000    -3.129000000
O     0.154000000    -5.025000000    -0.943000000
H    -0.399000000    -4.247000000    -0.869000000
H     0.247000000    -5.165000000    -1.885000000
O     0.501000000     1.600000000     8.065000000
H     0.777000000     0.932000000     7.438000000
H     0.985000000     2.385000000     7.808000000
O    -6.924000000    -0.503000000    -1.286000000
H    -7.047000000     0.247000000    -0.704000000
H    -5.998000000    -0.473000000    -1.524000000
O     3.436000000    -0.204000000    -3.697000000
H     3.547000000    -0.129000000    -2.749000000
H     3.636000000    -1.120000000    -3.890000000
O    -3.741000000     1.240000000    -6.220000000
H    -2.845000000     1.523000000    -6.407000000
H    -3.641000000     0.375000000    -5.823000000
O    -0.864000000     2.117000000    -6.729000000
H    -0.241000000     1.693000000    -7.319000000
H    -0.815000000     3.045000000    -6.955000000
O    -0.560000000    -3.050000000     3.287000000
H    -0.612000000    -2.284000000     3.858000000
H     0.373000000    -3.144000000     3.096000000
O    -0.830000000     3.064000000    -4.106000000
H    -0.437000000     3.730000000    -4.670000000
H    -0.739000000     2.248000000    -4.599000000
O     2.525000000     3.753000000     3.785000000
H     3.122000000     3.145000000     3.350000000
H     2.070000000     4.196000000     3.069000000
O     5.444000000     0.806000000    -1.040000000
H     5.184000000     0.093000000    -0.457000000
H     5.871000000     0.369000000    -1.777000000
O    -5.126000000     2.480000000     0.690000000
H    -6.004000000     2.101000000     0.729000000
H    -4.759000000     2.324000000     1.561000000
O     0.164000000     3.576000000    -1.216000000
H     0.450000000     3.172000000    -2.035000000
H     0.247000000     2.881000000    -0.563000000
O    -2.594000000    -4.590000000    -5.742000000
H    -3.403000000    -4.279000000    -6.149000000
H    -2.656000000    -4.295000000    -4.833000000
O     4.031000000    -3.092000000    -4.664000000
H     4.305000000    -3.527000000    -3.856000000
H     4.231000000    -3.723000000    -5.355000000
O    -1.208000000    -0.929000000     7.313000000
H    -1.276000000    -1.850000000     7.062000000
H    -0.323000000    -0.674000000     7.051000000
O     2.215000000    -2.337000000     3.658000000
H     2.568000000    -2.376000000     4.547000000
H     2.078000000    -1.403000000     3.495000000
O    -2.473000000     0.151000000     5.109000000
H    -2.054000000    -0.208000000     5.891000000
H    -1.750000000     0.508000000     4.592000000
O    -1.724000000    -2.884000000    -1.293000000
H    -1.199000000    -2.100000000    -1.130000000
H    -2.084000000    -3.113000000    -0.436000000
O     1.755000000     0.001000000     6.397000000
H     1.765000000     0.149000000     5.451000000
H     2.588000000     0.359000000     6.704000000
O    -4.442000000     3.336000000    -1.716000000
H    -4.773000000     2.920000000    -0.920000000
H    -4.494000000     2.652000000    -2.383000000
O     3.560000000    -2.775000000     5.993000000
H     4.325000000    -3.159000000     5.565000000
H     3.921000000    -2.265000000     6.718000000
O    -4.237000000    -0.850000000    -1.517000000
H    -3.280000000    -0.874000000    -1.529000000
H    -4.495000000    -1.720000000    -1.214000000
O    -5.179000000    -0.467000000     6.181000000
H    -4.278000000    -0.301000000     5.903000000
H    -5.674000000     0.283000000     5.852000000
O     4.090000000     2.631000000     0.680000000
H     3.294000000     3.093000000     0.415000000
H     4.399000000     2.208000000    -0.122000000
O    -2.008000000     4.997000000    -1.676000000
H    -2.718000000     4.356000000    -1.646000000
H    -1.209000000     4.470000000    -1.665000000
O    -2.301000000    -3.593000000     1.211000000
H    -1.637000000    -3.363000000     1.861000000
H    -2.330000000    -4.549000000     1.226000000
O    -0.326000000     5.493000000     6.377000000
H     0.620000000     5.587000000     6.487000000
H    -0.446000000     4.585000000     6.100000000
O     0.040000000     2.948000000     5.394000000
H     0.956000000     3.128000000     5.181000000
H    -0.245000000     2.330000000     4.721000000
O    -4.600000000     1.136000000    -3.299000000
H    -4.494000000     0.222000000    -3.034000000
H    -4.235000000     1.173000000    -4.183000000
O    -0.450000000    -1.716000000    -6.373000000
H     0.122000000    -0.950000000    -6.314000000
H    -1.254000000    -1.448000000    -5.929000000
O     1.348000000    -3.156000000    -4.487000000
H     2.264000000    -2.880000000    -4.525000000
H     0.892000000    -2.556000000    -5.077000000
O     4.630000000    -1.739000000    -0.595000000
H     5.390000000    -2.196000000    -0.236000000
H     3.876000000    -2.199000000    -0.224000000
O     5.230000000    -4.255000000    -2.092000000
H     5.092000000    -4.763000000    -1.293000000
H     5.020000000    -3.355000000    -1.843000000
O     3.927000000     1.133000000     7.535000000
H     4.869000000     0.995000000     7.440000000
H     3.774000000     2.006000000     7.173000000
O     2.338000000    -0.762000000    -6.351000000
H     2.967000000    -0.563000000    -5.657000000
H     1.984000000     0.091000000    -6.604000000
O     0.409000000     4.829000000     2.682000000
H    -0.339000000     4.739000000     3.273000000
H     0.042000000     5.225000000     1.891000000
O    -3.174000000    -0.994000000    -5.187000000
H    -3.080000000    -1.284000000    -4.279000000
H    -3.585000000    -1.734000000    -5.633000000
O     3.740000000     3.421000000     6.181000000
H     3.506000000     3.132000000     5.299000000
H     3.200000000     4.198000000     6.329000000
O    -4.416000000     1.226000000     3.380000000
H    -4.270000000     0.446000000     2.846000000
H    -3.696000000     1.224000000     4.010000000
O    -0.479000000    -4.275000000    -7.393000000
H     0.040000000    -3.623000000    -6.922000000
H    -1.222000000    -4.451000000    -6.816000000
O    -2.292000000     5.048000000     3.690000000
H    -2.843000000     4.907000000     4.459000000
H    -2.342000000     4.225000000     3.204000000
