161
-3064.07528
C     0.686000000     0.547000000     1.207000000
H     1.060000000     0.954000000     2.143000000
C    -0.617000000     0.800000000     0.822000000
H    -1.241000000     1.436000000     1.444000000
C    -1.137000000     0.224000000    -0.338000000
C    -2.555000000     0.606000000    -0.778000000
H    -2.777000000     1.580000000    -0.337000000
H    -2.745000000     0.578000000    -1.853000000
H    -3.347000000    -0.035000000    -0.386000000
C    -0.415000000    -0.654000000    -1.096000000
H    -0.831000000    -1.100000000    -1.996000000
C     0.950000000    -0.855000000    -0.738000000
H     1.552000000    -1.556000000    -1.311000000
C     1.503000000    -0.284000000     0.417000000
C     2.918000000    -0.629000000     0.798000000
O     3.445000000    -1.693000000     0.437000000
O     3.545000000     0.077000000     1.565000000
O    -2.821000000    -4.302000000    -1.370000000
H    -2.117000000    -4.923000000    -1.556000000
H    -2.884000000    -3.767000000    -2.161000000
O     8.561000000     0.333000000     0.021000000
H     8.444000000    -0.583000000    -0.231000000
H     7.872000000     0.493000000     0.666000000
O    -2.270000000     1.636000000     5.792000000
H    -2.161000000     1.041000000     5.050000000
H    -3.215000000     1.660000000     5.942000000
O     3.094000000     3.108000000     6.708000000
H     2.904000000     2.424000000     6.066000000
H     4.001000000     2.947000000     6.969000000
O    -1.478000000     0.112000000    -4.330000000
H    -1.401000000    -0.351000000    -5.164000000
H    -1.928000000    -0.505000000    -3.754000000
O    -1.556000000     4.331000000     0.973000000
H    -1.305000000     4.242000000     1.892000000
H    -1.637000000     5.275000000     0.838000000
O    -4.285000000     2.310000000    -3.927000000
H    -3.740000000     3.071000000    -3.724000000
H    -3.840000000     1.886000000    -4.661000000
O     1.942000000    -5.123000000    -0.743000000
H     1.603000000    -5.807000000    -1.320000000
H     2.376000000    -5.600000000    -0.035000000
O     4.050000000    -3.352000000    -1.600000000
H     3.216000000    -3.819000000    -1.661000000
H     3.968000000    -2.819000000    -0.810000000
O    -2.000000000    -5.572000000     0.969000000
H    -2.299000000    -4.800000000     0.489000000
H    -1.606000000    -6.132000000     0.301000000
O     3.083000000     0.710000000     5.666000000
H     3.650000000     0.137000000     5.150000000
H     2.211000000     0.324000000     5.580000000
O     2.458000000    -1.599000000    -4.350000000
H     2.816000000    -0.730000000    -4.171000000
H     2.299000000    -1.602000000    -5.294000000
O    -4.071000000     2.670000000     3.008000000
H    -3.920000000     3.565000000     2.705000000
H    -4.133000000     2.745000000     3.960000000
O     2.173000000     1.870000000    -2.248000000
H     2.395000000     2.674000000    -1.777000000
H     1.346000000     1.585000000    -1.860000000
O    -4.332000000     3.968000000    -0.319000000
H    -3.613000000     3.836000000    -0.936000000
H    -3.902000000     4.195000000     0.506000000
O     7.282000000     0.809000000     4.261000000
H     6.885000000     0.427000000     5.044000000
H     7.812000000     0.102000000     3.892000000
O    -1.090000000     4.917000000     3.794000000
H    -0.264000000     4.446000000     3.902000000
H    -0.838000000     5.840000000     3.769000000
O    -8.434000000    -2.117000000    -0.399000000
H    -7.574000000    -1.702000000    -0.475000000
H    -8.287000000    -2.870000000     0.172000000
O    -6.584000000     5.582000000    -0.885000000
H    -6.397000000     6.204000000    -1.588000000
H    -5.804000000     5.029000000    -0.841000000
O    -2.632000000    -2.259000000    -3.679000000
H    -3.433000000    -1.808000000    -3.411000000
H    -2.939000000    -3.010000000    -4.187000000
O     5.766000000     3.169000000     1.480000000
H     5.403000000     3.866000000     0.933000000
H     6.598000000     3.521000000     1.796000000
O     0.629000000    -0.234000000     5.732000000
H     0.054000000    -0.089000000     4.981000000
H     0.304000000    -1.042000000     6.130000000
O    -0.121000000     3.232000000    -1.256000000
H    -0.850000000     3.696000000    -0.846000000
H     0.624000000     3.397000000    -0.677000000
O     1.596000000    -3.392000000     1.420000000
H     1.394000000    -3.955000000     0.673000000
H     2.119000000    -2.681000000     1.049000000
O    -2.097000000     2.474000000    -5.535000000
H    -1.420000000     3.063000000    -5.202000000
H    -1.920000000     1.638000000    -5.104000000
O    -6.679000000     1.150000000    -3.757000000
H    -5.956000000     1.670000000    -3.407000000
H    -7.408000000     1.767000000    -3.823000000
O     1.075000000     0.314000000    -6.215000000
H     0.773000000     0.970000000    -5.587000000
H     0.300000000    -0.217000000    -6.398000000
O     4.222000000     1.854000000    -4.068000000
H     4.884000000     1.181000000    -3.906000000
H     3.629000000     1.791000000    -3.319000000
O    -2.613000000     4.231000000    -2.420000000
H    -1.836000000     3.714000000    -2.630000000
H    -2.310000000     5.139000000    -2.445000000
O     5.731000000    -2.772000000     1.312000000
H     4.861000000    -2.482000000     1.037000000
H     6.028000000    -2.096000000     1.922000000
O     1.882000000     4.546000000     3.347000000
H     2.341000000     3.906000000     2.803000000
H     2.409000000     4.603000000     4.144000000
O     5.622000000    -4.977000000     2.940000000
H     5.689000000    -4.338000000     2.231000000
H     5.256000000    -4.483000000     3.674000000
O    -1.848000000    -2.448000000     4.085000000
H    -2.568000000    -2.044000000     4.570000000
H    -2.128000000    -2.417000000     3.170000000
O     0.108000000    -3.251000000    -4.289000000
H     0.761000000    -2.573000000    -4.120000000
H    -0.720000000    -2.862000000    -4.006000000
O     2.149000000    -3.774000000     4.149000000
H     1.949000000    -3.824000000     3.214000000
H     1.294000000    -3.805000000     4.578000000
O     3.321000000     2.578000000     2.041000000
H     3.225000000     1.629000000     1.954000000
H     4.242000000     2.706000000     2.269000000
O    -5.602000000     1.744000000     1.035000000
H    -5.001000000     1.914000000     1.760000000
H    -5.279000000     2.296000000     0.322000000
O     4.940000000    -0.893000000    -2.775000000
H     4.390000000    -1.574000000    -2.388000000
H     5.315000000    -0.433000000    -2.025000000
O     6.206000000     0.072000000     1.814000000
H     6.419000000     0.384000000     2.694000000
H     5.249000000     0.063000000     1.789000000
O    -0.922000000    -1.688000000    -6.554000000
H    -1.430000000    -1.893000000    -7.339000000
H    -0.382000000    -2.465000000    -6.408000000
O     8.005000000    -2.265000000    -0.325000000
H     7.313000000    -2.664000000     0.202000000
H     7.613000000    -2.158000000    -1.192000000
O     5.634000000     0.914000000    -0.672000000
H     5.903000000     0.692000000     0.220000000
H     4.752000000     1.272000000    -0.574000000
O     4.086000000    -1.434000000     3.838000000
H     3.930000000    -0.914000000     3.049000000
H     3.447000000    -2.144000000     3.787000000
O    -5.005000000    -1.111000000    -2.888000000
H    -5.339000000    -1.074000000    -1.992000000
H    -5.387000000    -0.345000000    -3.317000000
O     4.651000000    -3.416000000    -4.693000000
H     3.866000000    -2.915000000    -4.474000000
H     5.177000000    -2.819000000    -5.225000000
O    -0.005000000     3.976000000    -4.261000000
H     0.272000000     3.393000000    -3.555000000
H     0.671000000     4.653000000    -4.293000000
O    -5.637000000    -0.953000000    -0.008000000
H    -5.700000000    -1.507000000     0.770000000
H    -5.743000000    -0.061000000     0.324000000
O     4.965000000    -5.991000000    -1.554000000
H     4.745000000    -5.060000000    -1.570000000
H     4.557000000    -6.347000000    -2.343000000
