161
-3018.18474
C     1.254000000     0.116000000     0.689000000
H     2.204000000     0.044000000     1.213000000
C     0.891000000    -0.938000000    -0.088000000
H     1.469000000    -1.851000000    -0.203000000
C    -0.327000000    -0.891000000    -0.726000000
C    -0.812000000    -2.132000000    -1.463000000
H    -0.240000000    -2.330000000    -2.372000000
H    -0.788000000    -3.051000000    -0.875000000
H    -1.843000000    -2.081000000    -1.822000000
C    -1.138000000     0.250000000    -0.631000000
H    -2.091000000     0.326000000    -1.148000000
C    -0.742000000     1.334000000     0.146000000
H    -1.389000000     2.204000000     0.225000000
C     0.457000000     1.285000000     0.843000000
C     0.889000000     2.311000000     1.776000000
O     0.287000000     3.311000000     2.013000000
O     1.914000000     2.098000000     2.425000000
O    -4.076000000    -1.291000000    -2.800000000
H    -4.206000000    -2.239000000    -2.793000000
H    -4.867000000    -0.937000000    -2.395000000
O     3.874000000     2.839000000     4.509000000
H     3.545000000     2.961000000     3.619000000
H     3.923000000     1.889000000     4.618000000
O     3.862000000    -2.497000000     2.783000000
H     4.450000000    -2.787000000     3.480000000
H     3.377000000    -3.284000000     2.535000000
O     5.000000000    -3.164000000    -1.317000000
H     5.841000000    -3.003000000    -0.888000000
H     4.974000000    -4.112000000    -1.444000000
O     0.596000000     5.629000000     7.047000000
H     0.441000000     5.466000000     6.116000000
H     1.532000000     5.819000000     7.104000000
O    -3.876000000     4.690000000    -0.232000000
H    -3.902000000     4.209000000     0.595000000
H    -4.693000000     4.454000000    -0.671000000
O    -2.166000000     5.069000000     5.200000000
H    -1.626000000     5.728000000     4.765000000
H    -2.172000000     4.327000000     4.595000000
O    -0.167000000    -1.748000000     3.075000000
H     0.483000000    -2.450000000     3.101000000
H     0.351000000    -0.943000000     3.064000000
O     5.804000000     0.786000000    -1.699000000
H     6.196000000     1.643000000    -1.861000000
H     4.912000000     0.863000000    -2.038000000
O     1.437000000    -4.381000000    -4.171000000
H     2.224000000    -3.935000000    -4.485000000
H     1.020000000    -4.716000000    -4.965000000
O    -3.693000000     2.135000000    -3.113000000
H    -2.856000000     2.563000000    -2.930000000
H    -3.453000000     1.250000000    -3.387000000
O    -2.181000000     2.730000000     3.142000000
H    -2.155000000     1.790000000     2.964000000
H    -1.273000000     3.017000000     3.046000000
O     3.287000000     0.610000000    -3.434000000
H     3.191000000    -0.262000000    -3.050000000
H     2.860000000     0.543000000    -4.288000000
O    -1.432000000    -6.766000000     0.861000000
H    -2.309000000    -6.949000000     1.197000000
H    -1.579000000    -6.183000000     0.115000000
O    -3.335000000    -4.613000000    -4.105000000
H    -3.816000000    -5.164000000    -4.722000000
H    -2.774000000    -4.069000000    -4.657000000
O     1.593000000    -4.446000000    -1.342000000
H     1.329000000    -4.385000000    -2.260000000
H     2.351000000    -5.030000000    -1.349000000
O     2.994000000     5.182000000     6.318000000
H     3.730000000     4.581000000     6.436000000
H     2.502000000     4.817000000     5.582000000
O     6.217000000    -0.538000000     2.452000000
H     5.520000000    -1.161000000     2.243000000
H     6.280000000    -0.560000000     3.406000000
O    -4.267000000    -3.394000000     2.820000000
H    -3.982000000    -3.057000000     1.971000000
H    -3.469000000    -3.735000000     3.223000000
O    -6.082000000     0.785000000    -1.839000000
H    -6.715000000     1.461000000    -1.594000000
H    -5.415000000     1.253000000    -2.342000000
O    -2.399000000    -5.295000000    -1.386000000
H    -2.998000000    -6.031000000    -1.511000000
H    -1.884000000    -5.266000000    -2.192000000
O    -4.355000000     2.845000000     1.636000000
H    -4.225000000     1.947000000     1.332000000
H    -3.537000000     3.068000000     2.081000000
O    -1.137000000    -3.981000000    -6.119000000
H    -0.456000000    -3.308000000    -6.097000000
H    -1.474000000    -3.953000000    -7.014000000
O     2.901000000    -1.961000000    -2.584000000
H     3.551000000    -2.134000000    -1.903000000
H     2.065000000    -2.195000000    -2.181000000
O     1.279000000     0.366000000     4.179000000
H     1.184000000     0.973000000     3.445000000
H     1.655000000     0.897000000     4.881000000
O    -0.941000000     7.190000000     3.887000000
H    -0.824000000     8.020000000     4.350000000
H    -0.180000000     7.130000000     3.309000000
O    -3.603000000    -3.217000000     0.112000000
H    -4.268000000    -3.886000000    -0.050000000
H    -2.853000000    -3.492000000    -0.416000000
O    -1.493000000     3.667000000    -4.423000000
H    -1.235000000     2.760000000    -4.586000000
H    -0.992000000     4.177000000    -5.059000000
O     4.053000000     3.600000000     0.896000000
H     3.401000000     3.222000000     1.486000000
H     4.798000000     3.000000000     0.947000000
O     0.133000000     5.403000000     0.507000000
H     0.167000000     4.658000000     1.107000000
H     0.593000000     5.101000000    -0.276000000
O    -1.218000000    -6.188000000    -3.673000000
H    -0.570000000    -5.638000000    -4.113000000
H    -2.046000000    -5.971000000    -4.100000000
O     3.284000000     6.043000000     2.749000000
H     2.797000000     5.537000000     3.399000000
H     3.307000000     5.481000000     1.975000000
O     1.330000000     4.280000000     4.395000000
H     0.926000000     4.005000000     3.572000000
H     1.728000000     3.483000000     4.744000000
O    -2.734000000    -0.331000000    -5.204000000
H    -3.485000000     0.105000000    -5.605000000
H    -3.111000000    -0.861000000    -4.501000000
O     2.449000000    -5.056000000     1.146000000
H     1.894000000    -4.842000000     0.396000000
H     1.908000000    -4.855000000     1.909000000
O     3.629000000    -3.256000000    -4.891000000
H     4.285000000    -2.999000000    -5.539000000
H     3.749000000    -2.638000000    -4.170000000
O     3.952000000     0.248000000     5.095000000
H     3.763000000    -0.569000000     4.632000000
H     4.475000000    -0.020000000     5.850000000
O     6.503000000     3.644000000     4.716000000
H     5.581000000     3.704000000     4.469000000
H     6.811000000     4.550000000     4.715000000
O    -1.791000000     5.605000000    -1.910000000
H    -2.487000000     5.463000000    -1.269000000
H    -1.295000000     4.787000000    -1.911000000
O    -5.830000000    -4.848000000    -2.656000000
H    -5.606000000    -5.083000000    -1.755000000
H    -5.042000000    -5.052000000    -3.160000000
O     1.230000000     4.794000000    -2.100000000
H     0.487000000     5.035000000    -2.653000000
H     1.420000000     3.886000000    -2.336000000
O     1.420000000     2.104000000    -2.225000000
H     2.156000000     1.532000000    -2.443000000
H     0.984000000     1.664000000    -1.495000000
O    -3.076000000     7.010000000     2.110000000
H    -2.659000000     6.911000000     1.254000000
H    -2.349000000     7.002000000     2.733000000
O    -4.068000000    -0.306000000     0.986000000
H    -3.702000000    -1.007000000     0.447000000
H    -3.346000000    -0.039000000     1.555000000
O    -2.395000000     0.067000000     3.046000000
H    -2.767000000    -0.098000000     3.912000000
H    -1.633000000    -0.511000000     2.999000000
O     1.095000000    -2.020000000    -6.828000000
H     1.905000000    -2.325000000    -7.236000000
H     1.382000000    -1.388000000    -6.169000000
O     1.186000000    -4.669000000     3.522000000
H     1.615000000    -4.657000000     4.377000000
H     0.757000000    -5.524000000     3.481000000
O    -1.356000000     7.687000000     0.017000000
H    -0.659000000     7.036000000     0.095000000
H    -1.827000000     7.441000000    -0.779000000
