161
-3062.89983
C     1.000000000     0.443000000     0.986000000
H     1.802000000     0.671000000     1.683000000
C     1.236000000    -0.503000000    -0.036000000
H     2.211000000    -0.976000000    -0.124000000
C     0.225000000    -0.821000000    -0.927000000
C     0.340000000    -1.766000000    -2.112000000
H     0.569000000    -2.797000000    -1.833000000
H    -0.530000000    -1.828000000    -2.770000000
H     1.173000000    -1.435000000    -2.735000000
C    -1.035000000    -0.216000000    -0.699000000
H    -1.935000000    -0.435000000    -1.269000000
C    -1.201000000     0.719000000     0.325000000
H    -2.150000000     1.202000000     0.541000000
C    -0.167000000     1.033000000     1.175000000
C    -0.437000000     1.992000000     2.281000000
O    -1.571000000     2.198000000     2.636000000
O     0.477000000     2.527000000     2.879000000
O    -4.589000000    -3.422000000    -2.468000000
H    -5.009000000    -4.281000000    -2.414000000
H    -5.315000000    -2.807000000    -2.569000000
O    -3.913000000    -3.350000000     1.391000000
H    -4.259000000    -2.920000000     0.609000000
H    -3.041000000    -2.972000000     1.505000000
O    -2.319000000     2.777000000     5.201000000
H    -2.083000000     2.705000000     4.276000000
H    -2.079000000     3.672000000     5.440000000
O     5.256000000    -1.759000000    -1.989000000
H     5.153000000    -1.920000000    -1.051000000
H     4.601000000    -2.320000000    -2.403000000
O     2.149000000    -5.981000000    -5.141000000
H     2.339000000    -5.219000000    -5.688000000
H     1.827000000    -5.612000000    -4.319000000
O    -3.453000000     5.317000000     4.538000000
H    -2.855000000     6.063000000     4.489000000
H    -3.474000000     5.087000000     5.467000000
O    -0.908000000     4.248000000    -2.315000000
H    -1.525000000     4.841000000    -2.744000000
H    -0.937000000     4.499000000    -1.392000000
O     4.040000000     0.655000000    -3.391000000
H     4.535000000     0.867000000    -2.600000000
H     3.992000000    -0.301000000    -3.395000000
O    -4.370000000     0.823000000     6.490000000
H    -3.780000000     1.261000000     5.876000000
H    -5.226000000     1.216000000     6.321000000
O     3.492000000    -3.356000000    -3.099000000
H     3.925000000    -3.802000000    -3.827000000
H     2.790000000    -3.952000000    -2.837000000
O    -5.214000000     0.120000000    -3.068000000
H    -5.925000000     0.180000000    -3.706000000
H    -4.419000000     0.263000000    -3.582000000
O    -4.997000000    -1.189000000    -0.636000000
H    -5.136000000    -0.400000000    -1.160000000
H    -4.869000000    -1.885000000    -1.281000000
O     4.003000000    -1.890000000     4.034000000
H     4.786000000    -1.488000000     4.410000000
H     4.301000000    -2.740000000     3.712000000
O     0.698000000     0.571000000    -5.566000000
H     1.083000000     1.316000000    -5.106000000
H     1.022000000    -0.196000000    -5.094000000
O     1.609000000    -5.205000000    -2.323000000
H     1.883000000    -5.765000000    -1.597000000
H     0.712000000    -4.951000000    -2.104000000
O     3.460000000     5.118000000     3.518000000
H     3.443000000     5.583000000     4.354000000
H     2.990000000     5.694000000     2.914000000
O    -6.037000000     0.712000000     1.076000000
H    -5.602000000    -0.074000000     0.745000000
H    -5.512000000     0.977000000     1.831000000
O     0.071000000    -2.488000000    -5.743000000
H    -0.573000000    -2.020000000    -6.274000000
H    -0.452000000    -2.996000000    -5.124000000
O     1.332000000     2.188000000     5.179000000
H     0.918000000     1.407000000     5.546000000
H     0.889000000     2.322000000     4.341000000
O    -1.556000000     0.046000000    -6.846000000
H    -0.731000000     0.246000000    -6.404000000
H    -1.342000000     0.084000000    -7.779000000
O    -0.683000000     0.287000000     6.035000000
H    -1.173000000    -0.530000000     6.131000000
H    -1.353000000     0.951000000     5.870000000
O     3.066000000     2.773000000     2.200000000
H     2.156000000     2.574000000     2.421000000
H     3.316000000     3.464000000     2.813000000
O    -5.484000000     3.452000000     3.888000000
H    -4.742000000     4.044000000     4.015000000
H    -6.046000000     3.905000000     3.259000000
O    -2.218000000    -5.100000000    -2.008000000
H    -2.918000000    -4.491000000    -1.772000000
H    -1.739000000    -5.242000000    -1.191000000
O     0.163000000     5.086000000     3.483000000
H     1.074000000     4.940000000     3.739000000
H    -0.160000000     4.217000000     3.243000000
O    -4.024000000     1.389000000     2.776000000
H    -3.105000000     1.655000000     2.796000000
H    -4.513000000     2.209000000     2.840000000
O     6.856000000    -0.519000000     2.087000000
H     7.495000000     0.193000000     2.104000000
H     6.076000000    -0.150000000     2.502000000
O    -1.534000000     1.636000000    -2.794000000
H    -1.392000000     1.001000000    -2.092000000
H    -1.252000000     2.472000000    -2.420000000
O     5.277000000    -2.492000000     0.801000000
H     4.703000000    -2.982000000     1.389000000
H     5.625000000    -1.783000000     1.341000000
O     2.791000000     2.409000000    -0.984000000
H     2.362000000     2.149000000    -0.168000000
H     3.646000000     1.979000000    -0.952000000
O    -2.815000000    -3.024000000    -4.548000000
H    -3.045000000    -2.108000000    -4.706000000
H    -3.249000000    -3.240000000    -3.722000000
O    -2.915000000    -0.150000000    -4.500000000
H    -2.291000000     0.304000000    -3.934000000
H    -2.511000000    -0.129000000    -5.367000000
O    -0.338000000    -5.640000000     0.082000000
H    -0.085000000    -6.558000000    -0.016000000
H    -0.387000000    -5.505000000     1.028000000
O     4.590000000     0.810000000     3.417000000
H     3.948000000     0.150000000     3.155000000
H     4.145000000     1.646000000     3.279000000
O    -0.738000000    -4.861000000    -4.213000000
H    -1.126000000    -5.133000000    -3.381000000
H    -1.459000000    -4.452000000    -4.691000000
O     5.833000000     2.594000000     1.078000000
H     5.829000000     3.496000000     0.758000000
H     5.017000000     2.511000000     1.571000000
O     1.479000000    -3.318000000     2.034000000
H     2.360000000    -3.662000000     1.890000000
H     1.326000000    -2.731000000     1.293000000
O     2.580000000     5.317000000     6.465000000
H     2.167000000     4.527000000     6.118000000
H     1.936000000     5.676000000     7.075000000
O    -4.520000000     3.627000000    -2.548000000
H    -4.199000000     2.835000000    -2.980000000
H    -5.056000000     3.303000000    -1.824000000
O     4.892000000     0.850000000    -0.777000000
H     5.202000000    -0.034000000    -0.579000000
H     5.404000000     1.418000000    -0.200000000
O    -1.964000000    -1.586000000     2.383000000
H    -1.233000000    -1.219000000     1.885000000
H    -2.431000000    -0.823000000     2.722000000
O    -2.482000000     4.033000000     0.946000000
H    -2.268000000     3.491000000     1.705000000
H    -1.632000000     4.277000000     0.579000000
O     1.611000000     2.922000000    -3.603000000
H     0.844000000     3.365000000    -3.239000000
H     2.018000000     2.492000000    -2.851000000
O    -6.437000000     2.963000000    -0.556000000
H    -6.317000000     2.172000000    -0.031000000
H    -6.244000000     3.681000000     0.046000000
O    -1.434000000     6.996000000     3.988000000
H    -0.888000000     7.768000000     3.842000000
H    -0.850000000     6.255000000     3.823000000
O     2.276000000    -3.889000000    -6.795000000
H     2.008000000    -4.411000000    -7.551000000
H     1.455000000    -3.559000000    -6.428000000
O    -0.333000000     5.418000000     0.138000000
H     0.180000000     5.452000000     0.946000000
H    -0.035000000     6.174000000    -0.367000000
O    -3.738000000     6.094000000    -0.031000000
H    -3.263000000     5.374000000     0.385000000
H    -3.456000000     6.070000000    -0.946000000
