161
-3067.34405
C     0.085000000     0.104000000     1.495000000
H     0.147000000     0.021000000     2.577000000
C    -0.132000000    -1.065000000     0.757000000
H    -0.232000000    -2.035000000     1.237000000
C    -0.256000000    -1.066000000    -0.663000000
C    -0.283000000    -2.333000000    -1.377000000
H    -0.414000000    -2.155000000    -2.446000000
H     0.682000000    -2.843000000    -1.332000000
H    -1.043000000    -3.072000000    -1.114000000
C    -0.087000000     0.219000000    -1.276000000
H    -0.202000000     0.204000000    -2.357000000
C     0.116000000     1.393000000    -0.536000000
H     0.241000000     2.324000000    -1.084000000
C     0.223000000     1.367000000     0.804000000
C     0.442000000     2.612000000     1.587000000
O     0.630000000     3.677000000     0.971000000
O     0.075000000     2.644000000     2.752000000
O    -0.988000000    -4.614000000    -4.263000000
H    -0.518000000    -5.270000000    -3.749000000
H    -0.318000000    -3.972000000    -4.501000000
O     0.598000000     5.273000000     4.946000000
H     0.451000000     4.428000000     4.520000000
H     0.503000000     5.915000000     4.243000000
O    -3.158000000    -3.002000000     2.611000000
H    -3.623000000    -2.857000000     1.787000000
H    -3.452000000    -2.290000000     3.180000000
O    -2.523000000     1.970000000     2.684000000
H    -2.843000000     1.966000000     3.587000000
H    -1.648000000     2.353000000     2.742000000
O     2.004000000    -7.306000000    -1.928000000
H     1.065000000    -7.147000000    -1.830000000
H     2.079000000    -8.256000000    -2.012000000
O    -0.346000000    -3.544000000     4.122000000
H    -1.184000000    -3.395000000     4.560000000
H    -0.370000000    -2.969000000     3.357000000
O    -4.479000000     2.899000000    -1.790000000
H    -4.307000000     2.488000000    -2.637000000
H    -3.796000000     2.556000000    -1.214000000
O     5.491000000    -3.429000000    -2.668000000
H     5.155000000    -3.682000000    -1.808000000
H     5.986000000    -2.626000000    -2.505000000
O     1.936000000    -4.790000000     3.937000000
H     1.100000000    -4.333000000     4.030000000
H     1.980000000    -5.367000000     4.700000000
O     1.133000000     3.217000000    -3.485000000
H     1.497000000     3.168000000    -4.369000000
H     1.694000000     3.844000000    -3.029000000
O     3.092000000     4.498000000     6.380000000
H     3.629000000     4.696000000     5.613000000
H     2.202000000     4.732000000     6.116000000
O    -4.572000000    -2.420000000     0.250000000
H    -4.707000000    -1.508000000    -0.009000000
H    -4.999000000    -2.930000000    -0.438000000
O    -1.106000000     6.090000000     6.980000000
H    -1.993000000     6.042000000     6.622000000
H    -0.550000000     5.724000000     6.292000000
O    -1.002000000    -7.101000000    -2.488000000
H    -1.445000000    -6.445000000    -1.950000000
H    -0.919000000    -7.864000000    -1.917000000
O     0.003000000     7.577000000     0.146000000
H    -0.736000000     8.132000000     0.395000000
H    -0.396000000     6.740000000    -0.091000000
O    -2.549000000     4.749000000     4.717000000
H    -2.365000000     3.891000000     5.098000000
H    -3.369000000     4.628000000     4.238000000
O     2.977000000    -0.250000000    -3.360000000
H     2.513000000     0.462000000    -2.919000000
H     2.937000000    -0.980000000    -2.741000000
O    -2.376000000     7.119000000     3.019000000
H    -3.094000000     7.557000000     3.476000000
H    -2.365000000     6.234000000     3.383000000
O     3.684000000     2.060000000     4.051000000
H     4.146000000     2.237000000     4.870000000
H     3.931000000     2.784000000     3.475000000
O     3.063000000    -0.963000000    -0.676000000
H     3.463000000    -1.620000000    -0.107000000
H     2.175000000    -0.859000000    -0.334000000
O     1.354000000     6.216000000    -2.362000000
H     1.720000000     6.809000000    -1.707000000
H     0.452000000     6.070000000    -2.076000000
O    -0.755000000     4.999000000    -0.767000000
H    -0.927000000     4.367000000    -1.465000000
H    -0.142000000     4.552000000    -0.184000000
O     3.304000000    -2.753000000     1.698000000
H     3.028000000    -2.528000000     2.586000000
H     2.860000000    -3.581000000     1.512000000
O     3.513000000     5.262000000     0.510000000
H     3.036000000     5.836000000     1.109000000
H     2.943000000     4.502000000     0.401000000
O    -2.860000000     1.324000000    -0.019000000
H    -1.966000000     1.067000000    -0.241000000
H    -2.829000000     1.511000000     0.920000000
O    -3.719000000    -4.394000000    -3.746000000
H    -2.786000000    -4.579000000    -3.854000000
H    -3.809000000    -3.471000000    -3.983000000
O     5.362000000     4.963000000    -1.249000000
H     5.934000000     5.723000000    -1.145000000
H     4.613000000     5.148000000    -0.683000000
O    -2.544000000     2.075000000     5.425000000
H    -3.061000000     1.803000000     6.184000000
H    -1.666000000     1.735000000     5.599000000
O     1.502000000     5.924000000     2.356000000
H     0.979000000     5.179000000     2.058000000
H     1.028000000     6.691000000     2.035000000
O    -1.629000000     3.700000000    -2.798000000
H    -0.773000000     3.486000000    -3.169000000
H    -2.057000000     4.227000000    -3.473000000
O    -4.462000000     1.000000000    -3.885000000
H    -4.938000000     1.610000000    -4.449000000
H    -3.855000000     0.553000000    -4.474000000
O     0.755000000    -2.789000000    -4.563000000
H     1.258000000    -2.267000000    -5.188000000
H     1.406000000    -3.346000000    -4.137000000
O    -0.776000000    -4.329000000    -6.911000000
H    -1.566000000    -4.798000000    -7.179000000
H    -0.663000000    -4.559000000    -5.988000000
O     2.512000000    -1.784000000    -6.085000000
H     2.690000000    -1.528000000    -6.989000000
H     2.965000000    -1.127000000    -5.556000000
O     2.632000000    -1.440000000     4.227000000
H     2.419000000    -0.507000000     4.236000000
H     2.237000000    -1.784000000     5.028000000
O    -2.386000000    -5.880000000    -0.392000000
H    -2.091000000    -6.136000000     0.482000000
H    -2.347000000    -4.924000000    -0.387000000
O    -0.562000000     0.528000000     6.292000000
H     0.180000000     0.542000000     5.688000000
H    -0.168000000     0.638000000     7.157000000
O     2.760000000    -5.498000000     1.439000000
H     3.617000000    -5.841000000     1.690000000
H     2.309000000    -5.348000000     2.270000000
O     2.864000000    -4.333000000    -3.557000000
H     3.619000000    -4.232000000    -2.978000000
H     2.914000000    -5.240000000    -3.860000000
O     5.266000000     0.735000000    -1.401000000
H     4.614000000     0.035000000    -1.387000000
H     4.860000000     1.431000000    -1.918000000
O     3.847000000    -5.166000000    -0.966000000
H     3.308000000    -5.056000000    -0.183000000
H     3.372000000    -5.806000000    -1.496000000
O     3.516000000     5.822000000     3.873000000
H     4.143000000     5.449000000     3.253000000
H     2.660000000     5.653000000     3.479000000
O    -1.781000000    -1.325000000    -7.261000000
H    -1.132000000    -0.986000000    -7.878000000
H    -1.307000000    -1.982000000    -6.751000000
O     1.391000000     1.049000000     4.508000000
H     0.846000000     1.400000000     3.804000000
H     2.190000000     1.575000000     4.477000000
O    -1.693000000    -5.656000000     2.759000000
H    -0.992000000    -6.288000000     2.922000000
H    -1.565000000    -4.980000000     3.425000000
O    -3.345000000     5.751000000    -1.022000000
H    -3.641000000     4.950000000    -1.455000000
H    -2.451000000     5.556000000    -0.741000000
O    -4.607000000    -0.129000000    -1.307000000
H    -4.498000000     0.095000000    -2.232000000
H    -3.968000000     0.420000000    -0.852000000
O    -2.260000000    -2.530000000     5.854000000
H    -2.105000000    -1.762000000     6.404000000
H    -2.924000000    -2.246000000     5.226000000
