161
-3058.98647
C    -0.641000000    -0.689000000     1.105000000
H    -1.060000000    -1.264000000     1.927000000
C     0.411000000    -1.169000000     0.362000000
H     0.845000000    -2.128000000     0.632000000
C     0.933000000    -0.416000000    -0.744000000
C     2.220000000    -0.840000000    -1.326000000
H     2.019000000    -1.767000000    -1.868000000
H     2.594000000    -0.111000000    -2.048000000
H     2.923000000    -1.069000000    -0.522000000
C     0.311000000     0.751000000    -1.090000000
H     0.670000000     1.379000000    -1.901000000
C    -0.849000000     1.176000000    -0.400000000
H    -1.373000000     2.101000000    -0.626000000
C    -1.266000000     0.509000000     0.742000000
C    -2.310000000     1.054000000     1.676000000
O    -2.678000000     2.165000000     1.579000000
O    -2.756000000     0.323000000     2.497000000
O    -1.226000000    -3.812000000     2.631000000
H    -1.030000000    -4.182000000     1.771000000
H    -1.825000000    -4.442000000     3.032000000
O     3.979000000    -5.599000000     0.885000000
H     4.180000000    -4.684000000     0.690000000
H     3.645000000    -5.953000000     0.061000000
O    -4.591000000     1.251000000     4.200000000
H    -3.957000000     0.993000000     3.531000000
H    -5.401000000     0.807000000     3.946000000
O    -4.807000000     3.456000000     2.525000000
H    -5.156000000     2.872000000     3.199000000
H    -3.924000000     3.127000000     2.358000000
O     0.589000000     2.583000000    -5.965000000
H     0.774000000     3.424000000    -6.384000000
H    -0.139000000     2.767000000    -5.371000000
O     3.243000000    -1.717000000     4.745000000
H     2.323000000    -1.541000000     4.944000000
H     3.217000000    -2.261000000     3.958000000
O    -5.613000000     5.724000000     3.586000000
H    -5.220000000     4.943000000     3.196000000
H    -6.002000000     5.413000000     4.404000000
O    -0.009000000     3.062000000     3.963000000
H     0.905000000     3.171000000     4.227000000
H    -0.315000000     2.307000000     4.465000000
O    -5.647000000     0.886000000     0.456000000
H    -5.273000000     1.643000000     0.906000000
H    -5.979000000     1.239000000    -0.370000000
O     4.601000000     2.393000000    -0.703000000
H     4.581000000     2.194000000    -1.640000000
H     3.681000000     2.391000000    -0.439000000
O     2.849000000    -2.072000000    -6.468000000
H     2.959000000    -1.897000000    -7.402000000
H     2.864000000    -1.207000000    -6.058000000
O     0.564000000     4.867000000    -3.077000000
H     1.318000000     5.066000000    -3.632000000
H     0.939000000     4.722000000    -2.208000000
O    -0.049000000    -5.062000000     0.320000000
H     0.249000000    -5.913000000     0.640000000
H     0.398000000    -4.952000000    -0.520000000
O     2.193000000     0.030000000    -4.847000000
H     1.372000000     0.494000000    -5.010000000
H     2.613000000     0.526000000    -4.145000000
O     6.147000000    -2.868000000    -3.710000000
H     6.812000000    -3.419000000    -3.299000000
H     5.317000000    -3.296000000    -3.499000000
O     3.662000000    -3.723000000    -2.524000000
H     2.818000000    -3.295000000    -2.666000000
H     3.932000000    -3.437000000    -1.651000000
O    -2.426000000     4.749000000     5.055000000
H    -2.969000000     4.788000000     4.268000000
H    -2.427000000     3.824000000     5.301000000
O    -1.258000000     4.081000000     1.778000000
H    -0.766000000     3.823000000     2.558000000
H    -1.804000000     3.321000000     1.577000000
O    -2.735000000     2.200000000     5.878000000
H    -3.584000000     1.920000000     5.535000000
H    -2.133000000     1.499000000     5.629000000
O     2.055000000    -3.674000000     2.837000000
H     1.787000000    -3.670000000     1.919000000
H     1.353000000    -3.209000000     3.293000000
O     0.750000000    -4.119000000    -2.805000000
H     0.564000000    -4.108000000    -3.744000000
H    -0.042000000    -3.765000000    -2.400000000
O    -1.447000000    -3.057000000    -1.683000000
H    -1.165000000    -2.636000000    -0.871000000
H    -1.834000000    -2.348000000    -2.197000000
O    -4.268000000     4.943000000     0.079000000
H    -5.202000000     5.073000000     0.239000000
H    -3.981000000     4.371000000     0.791000000
O     5.351000000    -3.036000000    -0.066000000
H     5.470000000    -2.091000000     0.023000000
H     6.111000000    -3.327000000    -0.570000000
O     6.102000000     0.018000000    -1.024000000
H     5.817000000    -0.024000000    -1.937000000
H     5.516000000     0.658000000    -0.620000000
O    -4.707000000    -4.146000000    -0.510000000
H    -4.027000000    -3.598000000    -0.118000000
H    -4.256000000    -4.959000000    -0.740000000
O     1.076000000    -3.737000000    -5.315000000
H     1.875000000    -3.311000000    -5.625000000
H     0.415000000    -3.044000000    -5.329000000
O    -6.936000000    -2.262000000     2.197000000
H    -6.049000000    -2.100000000     1.876000000
H    -6.873000000    -3.097000000     2.662000000
O    -3.979000000    -1.185000000    -0.975000000
H    -3.938000000    -1.075000000    -0.025000000
H    -4.875000000    -1.478000000    -1.143000000
O    -2.598000000    -5.967000000    -0.402000000
H    -1.734000000    -5.562000000    -0.323000000
H    -2.502000000    -6.818000000     0.024000000
O     5.088000000    -0.068000000     1.918000000
H     5.141000000     0.697000000     1.344000000
H     4.527000000     0.214000000     2.640000000
O    -2.460000000    -1.260000000     7.170000000
H    -2.227000000    -0.672000000     6.451000000
H    -1.959000000    -2.057000000     6.999000000
O    -1.820000000     4.234000000    -4.216000000
H    -1.023000000     4.518000000    -3.769000000
H    -2.491000000     4.238000000    -3.533000000
O     2.322000000    -6.213000000    -1.429000000
H     2.750000000    -7.030000000    -1.684000000
H     2.253000000    -5.714000000    -2.243000000
O     6.375000000     0.105000000    -3.786000000
H     6.372000000    -0.850000000    -3.848000000
H     6.857000000     0.393000000    -4.561000000
O     0.968000000     4.551000000    -0.448000000
H     1.506000000     3.840000000    -0.099000000
H     0.176000000     4.538000000     0.090000000
O    -2.393000000    -0.578000000    -3.115000000
H    -2.749000000     0.260000000    -3.410000000
H    -2.677000000    -0.652000000    -2.204000000
O    -4.048000000    -1.840000000     2.091000000
H    -3.604000000    -1.000000000     2.202000000
H    -4.303000000    -2.095000000     2.978000000
O     3.676000000    -5.684000000    -4.560000000
H     3.120000000    -5.057000000    -4.098000000
H     4.535000000    -5.590000000    -4.150000000
O     2.199000000     2.660000000     0.997000000
H     1.427000000     2.182000000     1.299000000
H     2.587000000     3.018000000     1.796000000
O    -1.590000000     6.596000000     1.880000000
H    -2.333000000     6.886000000     2.409000000
H    -1.700000000     5.647000000     1.814000000
O    -0.983000000    -2.034000000    -5.147000000
H    -0.859000000    -1.328000000    -5.781000000
H    -1.304000000    -1.595000000    -4.359000000
O    -1.377000000     0.218000000     4.748000000
H    -1.815000000     0.244000000     3.898000000
H    -0.678000000    -0.427000000     4.637000000
O     2.007000000    -5.884000000     4.287000000
H     2.096000000    -5.035000000     3.853000000
H     2.636000000    -5.851000000     5.008000000
O    -4.139000000     4.214000000    -2.800000000
H    -3.837000000     4.227000000    -1.891000000
H    -4.703000000     3.443000000    -2.854000000
O    -3.478000000     1.946000000    -4.424000000
H    -3.628000000     1.434000000    -5.219000000
H    -3.370000000     2.845000000    -4.735000000
O     4.072000000     1.638000000    -3.254000000
H     3.979000000     2.414000000    -3.807000000
H     4.909000000     1.256000000    -3.517000000
O     0.302000000    -2.306000000     4.500000000
H    -0.336000000    -2.871000000     4.064000000
H     0.194000000    -2.497000000     5.432000000
