161
-3036.54058
C    -1.185000000    -0.553000000     0.708000000
H    -2.011000000    -0.987000000     1.265000000
C    -0.259000000    -1.285000000     0.065000000
H    -0.381000000    -2.353000000    -0.097000000
C     0.787000000    -0.690000000    -0.592000000
C     1.891000000    -1.508000000    -1.289000000
H     1.949000000    -2.521000000    -0.886000000
H     1.776000000    -1.530000000    -2.375000000
H     2.828000000    -0.965000000    -1.150000000
C     0.877000000     0.668000000    -0.677000000
H     1.723000000     1.177000000    -1.131000000
C    -0.045000000     1.445000000     0.100000000
H     0.111000000     2.518000000     0.025000000
C    -1.079000000     0.834000000     0.760000000
C    -2.039000000     1.682000000     1.566000000
O    -2.022000000     2.937000000     1.518000000
O    -2.926000000     1.130000000     2.187000000
O    -4.715000000    -4.076000000     0.668000000
H    -3.859000000    -4.295000000     1.035000000
H    -5.295000000    -4.025000000     1.427000000
O    -2.459000000     0.131000000     5.856000000
H    -2.020000000    -0.284000000     5.113000000
H    -2.946000000     0.859000000     5.469000000
O    -2.958000000     6.530000000     2.243000000
H    -3.628000000     6.001000000     2.676000000
H    -3.288000000     7.427000000     2.299000000
O     2.755000000     0.629000000     1.916000000
H     3.167000000    -0.195000000     2.178000000
H     2.309000000     0.423000000     1.094000000
O    -2.953000000     3.634000000     3.711000000
H    -3.857000000     3.487000000     3.429000000
H    -2.429000000     3.473000000     2.926000000
O    -5.560000000     4.053000000     2.828000000
H    -5.863000000     3.931000000     1.928000000
H    -5.880000000     3.282000000     3.295000000
O     2.225000000    -3.241000000     2.993000000
H     1.450000000    -3.477000000     3.502000000
H     2.936000000    -3.742000000     3.392000000
O    -1.784000000     4.558000000     6.052000000
H    -2.171000000     4.128000000     5.289000000
H    -2.444000000     4.468000000     6.739000000
O    -3.541000000     4.591000000     0.334000000
H    -3.008000000     3.895000000     0.718000000
H    -3.361000000     5.359000000     0.876000000
O     1.408000000     2.447000000     3.230000000
H     1.854000000     1.731000000     2.776000000
H     0.888000000     2.013000000     3.907000000
O     0.236000000    -3.696000000    -6.191000000
H    -0.265000000    -2.927000000    -5.919000000
H     1.091000000    -3.347000000    -6.443000000
O    -4.844000000     1.107000000     0.489000000
H    -4.061000000     1.149000000     1.036000000
H    -5.103000000     2.020000000     0.370000000
O     0.062000000     1.752000000     5.317000000
H    -0.657000000     1.875000000     4.698000000
H    -0.204000000     1.002000000     5.849000000
O     7.623000000    -1.194000000    -1.455000000
H     6.713000000    -0.896000000    -1.489000000
H     8.114000000    -0.517000000    -1.921000000
O     5.660000000     4.307000000    -1.080000000
H     5.086000000     3.734000000    -0.573000000
H     6.534000000     4.144000000    -0.725000000
O     3.391000000     4.889000000    -4.128000000
H     3.105000000     4.150000000    -3.592000000
H     4.146000000     5.246000000    -3.661000000
O     1.515000000     4.546000000    -1.440000000
H     1.731000000     5.456000000    -1.645000000
H     1.186000000     4.574000000    -0.542000000
O     3.996000000    -1.858000000     1.459000000
H     4.201000000    -2.312000000     0.641000000
H     3.426000000    -2.463000000     1.933000000
O    -6.559000000     1.770000000     3.921000000
H    -7.229000000     1.715000000     4.603000000
H    -5.830000000     1.250000000     4.259000000
O    -1.444000000    -6.392000000    -1.116000000
H    -0.515000000    -6.602000000    -1.208000000
H    -1.647000000    -5.861000000    -1.886000000
O     3.334000000     0.478000000    -4.485000000
H     3.065000000     0.771000000    -5.356000000
H     3.005000000     1.154000000    -3.893000000
O     4.973000000    -1.680000000    -4.566000000
H     4.270000000    -1.064000000    -4.360000000
H     5.367000000    -1.335000000    -5.367000000
O    -0.376000000    -1.114000000     4.058000000
H     0.576000000    -1.020000000     4.017000000
H    -0.546000000    -1.986000000     3.700000000
O    -0.450000000     6.081000000     3.450000000
H    -1.139000000     6.216000000     2.800000000
H    -0.883000000     5.614000000     4.165000000
O     0.201000000     4.632000000     0.949000000
H     0.341000000     4.722000000     1.891000000
H    -0.661000000     4.224000000     0.872000000
O    -2.260000000    -4.881000000     1.097000000
H    -1.801000000    -5.550000000     1.603000000
H    -2.065000000    -5.094000000     0.184000000
O    -1.683000000    -2.581000000    -2.538000000
H    -2.442000000    -2.697000000    -3.108000000
H    -1.563000000    -1.632000000    -2.489000000
O     6.360000000    -0.503000000     2.346000000
H     6.004000000    -0.122000000     3.148000000
H     5.680000000    -1.106000000     2.044000000
O     4.128000000    -5.482000000    -3.201000000
H     4.078000000    -5.420000000    -2.247000000
H     3.918000000    -6.396000000    -3.393000000
O    -4.991000000    -2.308000000    -1.481000000
H    -4.893000000    -2.957000000    -2.177000000
H    -4.859000000    -2.802000000    -0.672000000
O    -0.118000000    -4.742000000    -3.407000000
H     0.114000000    -4.731000000    -4.336000000
H    -0.609000000    -3.931000000    -3.274000000
O    -3.303000000    -1.265000000     3.214000000
H    -3.055000000    -0.514000000     2.674000000
H    -4.065000000    -0.963000000     3.708000000
O     0.022000000     7.197000000    -0.264000000
H     0.054000000     6.283000000     0.018000000
H     0.359000000     7.182000000    -1.160000000
O    -1.220000000     0.790000000    -2.994000000
H    -0.691000000     1.002000000    -2.225000000
H    -2.124000000     0.839000000    -2.684000000
O     4.311000000     2.617000000     0.593000000
H     3.943000000     3.276000000     1.182000000
H     4.008000000     1.782000000     0.949000000
O     3.832000000    -3.749000000    -5.988000000
H     4.228000000    -2.906000000    -5.765000000
H     3.648000000    -4.157000000    -5.142000000
O    -5.310000000     6.418000000    -0.690000000
H    -5.307000000     7.157000000    -0.082000000
H    -4.801000000     5.739000000    -0.246000000
O     1.977000000     2.709000000    -3.188000000
H     1.588000000     3.102000000    -2.407000000
H     1.338000000     2.873000000    -3.882000000
O    -3.871000000     1.308000000    -2.158000000
H    -4.292000000     1.327000000    -1.299000000
H    -4.541000000     0.957000000    -2.745000000
O    -0.190000000     2.806000000    -4.795000000
H    -0.523000000     2.050000000    -4.310000000
H    -0.273000000     2.556000000    -5.715000000
O     4.205000000    -6.395000000    -0.017000000
H     4.805000000    -6.959000000     0.471000000
H     3.357000000    -6.522000000     0.409000000
O    -1.120000000    -1.186000000    -5.308000000
H    -1.402000000    -0.846000000    -6.157000000
H    -1.228000000    -0.448000000    -4.707000000
O    -6.761000000    -0.912000000    -0.083000000
H    -6.260000000    -0.184000000     0.284000000
H    -6.132000000    -1.382000000    -0.632000000
O    -3.467000000     4.110000000    -2.820000000
H    -3.891000000     3.727000000    -3.588000000
H    -3.489000000     3.415000000    -2.162000000
O    -5.451000000    -0.810000000     4.950000000
H    -5.264000000    -0.763000000     5.887000000
H    -6.021000000    -1.573000000     4.857000000
O    -1.931000000    -3.564000000     3.445000000
H    -1.988000000    -3.799000000     2.519000000
H    -2.512000000    -2.809000000     3.537000000
O     5.613000000     0.658000000    -1.299000000
H     5.057000000     1.317000000    -0.884000000
H     6.493000000     1.033000000    -1.270000000
O     4.840000000    -3.980000000    -0.194000000
H     4.522000000    -4.873000000    -0.065000000
H     5.635000000    -4.082000000    -0.717000000
