161
-3047.86600
C    -0.923000000    -0.637000000     0.902000000
H    -1.665000000    -1.117000000     1.535000000
C    -0.127000000    -1.307000000     0.051000000
H    -0.390000000    -2.361000000     0.067000000
C     0.708000000    -0.640000000    -0.812000000
C     1.643000000    -1.344000000    -1.720000000
H     1.269000000    -2.355000000    -1.894000000
H     1.649000000    -0.818000000    -2.677000000
H     2.666000000    -1.307000000    -1.340000000
C     0.824000000     0.753000000    -0.646000000
H     1.455000000     1.309000000    -1.335000000
C     0.074000000     1.535000000     0.176000000
H     0.096000000     2.618000000     0.267000000
C    -0.897000000     0.773000000     0.956000000
C    -1.892000000     1.451000000     1.889000000
O    -1.652000000     2.618000000     2.223000000
O    -2.833000000     0.830000000     2.351000000
O    -3.364000000    -3.726000000     1.591000000
H    -3.846000000    -3.663000000     2.416000000
H    -2.560000000    -4.193000000     1.819000000
O     2.062000000    -4.861000000     1.320000000
H     2.641000000    -5.459000000     1.793000000
H     2.430000000    -3.993000000     1.484000000
O    -2.658000000     6.139000000     3.697000000
H    -3.207000000     5.513000000     3.224000000
H    -3.244000000     6.532000000     4.344000000
O     3.005000000     1.104000000     1.637000000
H     3.713000000     0.512000000     1.381000000
H     2.204000000     0.622000000     1.430000000
O    -1.472000000     3.439000000     4.661000000
H    -2.394000000     3.642000000     4.819000000
H    -1.447000000     3.129000000     3.755000000
O    -4.042000000     2.036000000     4.826000000
H    -3.690000000     1.341000000     4.269000000
H    -3.958000000     1.694000000     5.716000000
O     2.124000000    -2.019000000     1.890000000
H     1.471000000    -2.001000000     1.189000000
H     1.630000000    -2.272000000     2.670000000
O    -1.262000000     1.803000000     7.035000000
H    -1.027000000     2.333000000     6.273000000
H    -2.190000000     1.604000000     6.912000000
O    -3.837000000     4.097000000     2.256000000
H    -3.132000000     3.452000000     2.295000000
H    -4.543000000     3.654000000     1.786000000
O     4.134000000     3.291000000     2.991000000
H     4.823000000     2.678000000     3.245000000
H     3.452000000     2.740000000     2.607000000
O     2.504000000     0.168000000    -5.227000000
H     2.294000000     1.013000000    -4.829000000
H     2.073000000    -0.475000000    -4.664000000
O    -5.375000000     0.164000000     2.325000000
H    -4.430000000     0.278000000     2.221000000
H    -5.748000000     1.003000000     2.053000000
O     1.765000000     4.553000000     0.312000000
H     1.669000000     5.499000000     0.195000000
H     1.478000000     4.392000000     1.210000000
O     4.789000000    -2.192000000     2.445000000
H     3.887000000    -2.122000000     2.133000000
H     5.315000000    -2.240000000     1.647000000
O     0.472000000    -4.081000000    -4.626000000
H    -0.104000000    -3.617000000    -4.018000000
H     1.311000000    -4.132000000    -4.168000000
O    -1.128000000    -1.092000000    -5.883000000
H    -1.458000000    -0.805000000    -6.735000000
H    -0.275000000    -1.481000000    -6.076000000
O     2.553000000    -4.592000000    -1.373000000
H     3.161000000    -3.922000000    -1.061000000
H     2.132000000    -4.920000000    -0.578000000
O     4.730000000    -2.310000000    -3.450000000
H     4.690000000    -1.765000000    -2.664000000
H     5.265000000    -1.807000000    -4.063000000
O     6.516000000    -4.642000000    -3.100000000
H     6.087000000    -5.289000000    -2.540000000
H     5.832000000    -3.999000000    -3.290000000
O     1.048000000    -0.609000000     5.535000000
H     1.921000000    -1.002000000     5.529000000
H     0.677000000    -0.836000000     4.682000000
O    -0.064000000     5.647000000     5.096000000
H    -0.580000000     5.980000000     4.362000000
H    -0.436000000     4.784000000     5.279000000
O     0.650000000     4.201000000     2.704000000
H     0.648000000     4.371000000     3.646000000
H    -0.143000000     3.688000000     2.552000000
O     4.657000000    -0.161000000    -7.068000000
H     5.285000000    -0.469000000    -6.414000000
H     3.908000000     0.144000000    -6.556000000
O    -0.784000000    -4.821000000     2.093000000
H    -0.726000000    -5.689000000     2.491000000
H    -0.213000000    -4.871000000     1.326000000
O    -0.327000000    -4.459000000    -1.429000000
H     0.620000000    -4.584000000    -1.475000000
H    -0.496000000    -3.700000000    -1.988000000
O    -6.190000000     2.739000000     1.065000000
H    -6.574000000     3.552000000     0.739000000
H    -6.600000000     2.605000000     1.919000000
O    -1.656000000     4.074000000    -0.753000000
H    -1.972000000     3.834000000     0.119000000
H    -2.372000000     3.837000000    -1.341000000
O    -2.306000000     5.062000000    -3.725000000
H    -1.720000000     4.474000000    -3.248000000
H    -2.601000000     5.692000000    -3.068000000
O    -4.554000000     4.765000000     5.118000000
H    -5.439000000     4.566000000     5.422000000
H    -4.148000000     3.908000000     4.985000000
O    -4.404000000    -2.236000000    -0.297000000
H    -3.981000000    -2.902000000     0.245000000
H    -4.422000000    -1.455000000     0.255000000
O    -1.942000000    -6.653000000    -1.908000000
H    -2.697000000    -6.186000000    -2.264000000
H    -1.259000000    -5.986000000    -1.838000000
O    -1.804000000    -0.964000000     4.471000000
H    -2.310000000    -0.425000000     3.862000000
H    -2.455000000    -1.312000000     5.080000000
O    -0.863000000     6.813000000     1.028000000
H    -1.005000000     5.963000000     1.443000000
H    -0.166000000     6.656000000     0.391000000
O    -3.178000000    -0.752000000    -2.167000000
H    -3.654000000    -1.342000000    -1.583000000
H    -3.745000000    -0.667000000    -2.934000000
O     4.082000000     3.157000000    -0.394000000
H     3.840000000     2.294000000    -0.059000000
H     3.326000000     3.711000000    -0.196000000
O     3.422000000    -4.720000000    -3.923000000
H     3.949000000    -3.937000000    -4.083000000
H     3.219000000    -4.686000000    -2.988000000
O     0.856000000     3.841000000    -2.285000000
H     0.106000000     3.788000000    -1.692000000
H     1.525000000     4.308000000    -1.785000000
O    -6.726000000     0.587000000    -0.535000000
H    -6.474000000     0.886000000    -1.408000000
H    -6.600000000     1.352000000     0.026000000
O    -1.206000000     1.080000000    -2.783000000
H    -1.983000000     0.600000000    -2.494000000
H    -0.924000000     1.567000000    -2.008000000
O    -1.028000000    -1.955000000    -3.379000000
H    -1.020000000    -1.638000000    -4.282000000
H    -1.749000000    -1.481000000    -2.965000000
O    -5.990000000    -2.358000000     2.742000000
H    -5.745000000    -1.441000000     2.618000000
H    -5.799000000    -2.773000000     1.901000000
O    -4.020000000     2.885000000    -1.726000000
H    -4.484000000     2.169000000    -2.161000000
H    -4.593000000     3.644000000    -1.836000000
O    -4.088000000    -1.479000000     6.026000000
H    -4.078000000    -2.355000000     6.414000000
H    -4.986000000    -1.172000000     6.152000000
O     0.634000000     2.161000000    -4.312000000
H    -0.083000000     1.646000000    -3.942000000
H     0.697000000     2.928000000    -3.743000000
O     0.255000000    -2.932000000     3.736000000
H    -0.227000000    -3.574000000     3.216000000
H    -0.420000000    -2.348000000     4.081000000
O    -6.903000000    -0.647000000     5.493000000
H    -7.801000000    -0.860000000     5.239000000
H    -6.413000000    -0.658000000     4.671000000
O     5.051000000     0.289000000    -1.803000000
H     4.728000000     1.086000000    -2.224000000
H     5.910000000     0.531000000    -1.459000000
O     4.938000000    -4.134000000    -0.116000000
H     5.235000000    -4.964000000    -0.489000000
H     5.717000000    -3.767000000     0.302000000
