161
-2995.85183
C    -0.095000000    -0.256000000     1.480000000
H    -0.060000000    -0.571000000     2.519000000
C     0.705000000    -0.948000000     0.521000000
H     1.158000000    -1.901000000     0.783000000
C     0.784000000    -0.506000000    -0.815000000
C     1.517000000    -1.358000000    -1.807000000
H     0.843000000    -2.208000000    -1.930000000
H     1.681000000    -0.910000000    -2.789000000
H     2.481000000    -1.767000000    -1.496000000
C    -0.035000000     0.475000000    -1.193000000
H    -0.031000000     0.625000000    -2.270000000
C    -0.819000000     1.205000000    -0.351000000
H    -1.530000000     1.942000000    -0.716000000
C    -0.795000000     0.903000000     1.058000000
C    -1.643000000     1.598000000     2.110000000
O    -2.311000000     2.535000000     1.695000000
O    -1.857000000     1.135000000     3.205000000
O    -3.727000000     1.679000000    -3.038000000
H    -4.357000000     1.819000000    -2.332000000
H    -4.170000000     2.003000000    -3.822000000
O     2.782000000    -6.014000000     2.371000000
H     3.477000000    -6.615000000     2.104000000
H     3.169000000    -5.143000000     2.277000000
O    -4.148000000     5.908000000     3.662000000
H    -4.376000000     5.199000000     3.061000000
H    -4.959000000     6.405000000     3.766000000
O     1.377000000     1.669000000     3.702000000
H     0.526000000     1.364000000     4.017000000
H     1.985000000     1.457000000     4.410000000
O    -3.782000000     2.302000000     4.837000000
H    -4.080000000     2.741000000     4.039000000
H    -3.013000000     1.803000000     4.563000000
O    -4.719000000     3.398000000     2.304000000
H    -3.821000000     3.244000000     2.009000000
H    -5.181000000     2.585000000     2.099000000
O     1.444000000    -1.429000000     5.503000000
H     1.172000000    -1.185000000     6.388000000
H     0.628000000    -1.649000000     5.054000000
O    -3.346000000     0.124000000     7.049000000
H    -3.069000000     0.796000000     7.672000000
H    -4.044000000    -0.349000000     7.502000000
O    -6.599000000     5.543000000     1.032000000
H    -7.357000000     5.203000000     0.558000000
H    -6.025000000     4.785000000     1.142000000
O     1.094000000     4.398000000     2.772000000
H     1.383000000     3.489000000     2.854000000
H     0.143000000     4.358000000     2.875000000
O    -1.693000000     1.766000000    -6.203000000
H    -2.642000000     1.875000000    -6.271000000
H    -1.489000000     2.003000000    -5.298000000
O    -4.297000000    -0.877000000     1.683000000
H    -3.736000000    -0.508000000     2.365000000
H    -4.927000000    -0.184000000     1.489000000
O    -0.226000000    -0.121000000     8.024000000
H     0.078000000    -0.958000000     8.376000000
H    -0.892000000    -0.361000000     7.380000000
O     1.081000000     2.182000000     6.572000000
H     0.446000000     1.632000000     7.030000000
H     1.868000000     2.143000000     7.115000000
O     4.799000000    -0.521000000    -4.342000000
H     5.672000000    -0.462000000    -4.731000000
H     4.672000000     0.323000000    -3.909000000
O     0.838000000     3.828000000    -2.247000000
H     1.494000000     3.911000000    -2.940000000
H     0.988000000     4.587000000    -1.684000000
O     1.890000000     3.401000000    -4.835000000
H     1.187000000     4.012000000    -5.054000000
H     1.440000000     2.643000000    -4.460000000
O     3.719000000    -2.673000000     4.639000000
H     2.923000000    -2.224000000     4.922000000
H     4.307000000    -1.969000000     4.366000000
O     5.007000000    -0.845000000     3.215000000
H     5.105000000    -0.966000000     2.270000000
H     5.315000000     0.047000000     3.376000000
O     0.307000000    -2.213000000    -4.809000000
H    -0.604000000    -1.970000000    -4.649000000
H     0.475000000    -1.936000000    -5.710000000
O     0.719000000    -5.452000000    -0.068000000
H     1.325000000    -6.152000000    -0.311000000
H     1.062000000    -5.114000000     0.759000000
O     6.053000000    -3.735000000    -2.801000000
H     6.766000000    -3.122000000    -2.979000000
H     5.314000000    -3.178000000    -2.557000000
O    -3.040000000     4.769000000     5.993000000
H    -3.560000000     5.256000000     5.354000000
H    -3.388000000     3.878000000     5.957000000
O    -1.413000000     4.371000000     3.655000000
H    -2.135000000     4.503000000     4.269000000
H    -1.583000000     3.514000000     3.265000000
O     3.516000000    -0.312000000    -6.634000000
H     3.630000000    -0.220000000    -5.688000000
H     3.998000000     0.426000000    -7.006000000
O    -1.538000000    -3.850000000     0.159000000
H    -0.868000000    -4.498000000    -0.058000000
H    -1.151000000    -3.011000000    -0.091000000
O    -2.395000000     4.567000000    -0.143000000
H    -2.075000000     3.884000000     0.447000000
H    -3.277000000     4.283000000    -0.381000000
O     5.227000000    -1.243000000     0.337000000
H     6.062000000    -1.502000000    -0.052000000
H     4.897000000    -0.555000000    -0.240000000
O    -0.995000000    -6.917000000    -1.533000000
H    -1.228000000    -6.298000000    -2.225000000
H    -0.267000000    -6.500000000    -1.072000000
O    -5.784000000     1.766000000     6.887000000
H    -5.178000000     1.489000000     6.200000000
H    -5.221000000     2.135000000     7.568000000
O    -2.322000000    -0.786000000     4.824000000
H    -2.262000000    -0.113000000     4.146000000
H    -2.870000000    -0.394000000     5.503000000
O    -1.241000000     6.931000000     2.193000000
H    -1.465000000     6.056000000     2.511000000
H    -2.006000000     7.205000000     1.687000000
O    -2.449000000    -2.295000000    -5.132000000
H    -3.370000000    -2.492000000    -4.963000000
H    -2.414000000    -2.101000000    -6.069000000
O     2.309000000     1.768000000     1.153000000
H     2.353000000     1.586000000     2.092000000
H     1.536000000     1.289000000     0.852000000
O     2.788000000    -3.490000000    -4.323000000
H     1.897000000    -3.303000000    -4.618000000
H     2.999000000    -2.770000000    -3.728000000
O    -3.235000000     7.017000000     0.413000000
H    -2.798000000     6.223000000     0.106000000
H    -4.124000000     6.951000000     0.065000000
O    -2.266000000     5.615000000    -2.915000000
H    -1.345000000     5.699000000    -3.162000000
H    -2.247000000     5.162000000    -2.072000000
O    -6.162000000     1.166000000     0.724000000
H    -6.465000000     1.546000000    -0.100000000
H    -6.891000000     1.299000000     1.331000000
O     4.939000000    -2.905000000    -6.463000000
H     4.773000000    -2.129000000    -6.997000000
H     4.593000000    -2.679000000    -5.599000000
O    -2.783000000    -0.892000000    -1.487000000
H    -2.910000000    -0.200000000    -2.136000000
H    -2.058000000    -0.581000000    -0.945000000
O    -1.066000000    -4.542000000    -3.683000000
H    -0.693000000    -3.907000000    -4.295000000
H    -1.633000000    -4.021000000    -3.114000000
O    -4.903000000     4.388000000    -1.592000000
H    -5.520000000     3.680000000    -1.781000000
H    -5.143000000     5.084000000    -2.204000000
O    -1.212000000     2.608000000    -3.631000000
H    -1.990000000     2.368000000    -3.127000000
H    -0.556000000     2.824000000    -2.969000000
O    -1.057000000    -2.793000000     5.613000000
H    -1.612000000    -3.264000000     6.234000000
H    -1.586000000    -2.043000000     5.340000000
O     3.526000000    -5.862000000    -4.912000000
H     3.273000000    -4.949000000    -4.772000000
H     3.757000000    -5.907000000    -5.840000000
O     4.083000000     0.978000000    -0.902000000
H     3.284000000     1.213000000    -0.430000000
H     4.293000000     1.756000000    -1.419000000
O     1.160000000    -1.793000000    -7.380000000
H     1.689000000    -1.028000000    -7.151000000
H     0.935000000    -1.661000000    -8.301000000
O     3.823000000    -3.394000000     1.745000000
H     4.291000000    -2.726000000     1.243000000
H     3.451000000    -2.917000000     2.488000000
