161
-3059.05657
C    -1.285000000    -0.371000000     0.577000000
H    -2.236000000    -0.759000000     0.933000000
C    -0.606000000    -1.201000000    -0.393000000
H    -0.928000000    -2.234000000    -0.498000000
C     0.550000000    -0.613000000    -0.931000000
C     1.413000000    -1.491000000    -1.770000000
H     0.818000000    -1.644000000    -2.673000000
H     2.377000000    -1.050000000    -2.032000000
H     1.508000000    -2.456000000    -1.267000000
C     1.067000000     0.592000000    -0.477000000
H     1.951000000     1.064000000    -0.900000000
C     0.418000000     1.329000000     0.521000000
H     0.822000000     2.290000000     0.831000000
C    -0.808000000     0.871000000     0.991000000
C    -1.500000000     1.645000000     2.094000000
O    -1.065000000     2.786000000     2.372000000
O    -2.493000000     1.234000000     2.626000000
O    -2.679000000    -3.720000000     0.550000000
H    -2.271000000    -4.571000000     0.391000000
H    -3.457000000    -3.921000000     1.070000000
O     5.147000000     2.923000000     3.072000000
H     4.566000000     2.400000000     3.624000000
H     5.989000000     2.470000000     3.113000000
O    -3.180000000     1.445000000     5.420000000
H    -2.657000000     1.528000000     4.623000000
H    -3.967000000     0.976000000     5.143000000
O     2.946000000     4.753000000     4.183000000
H     3.802000000     4.323000000     4.171000000
H     2.321000000     4.047000000     4.021000000
O     0.724000000     0.282000000     4.552000000
H    -0.041000000     0.433000000     5.107000000
H     0.757000000    -0.669000000     4.442000000
O    -2.215000000     4.217000000     4.541000000
H    -2.663000000     3.575000000     5.091000000
H    -1.769000000     3.692000000     3.876000000
O    -5.824000000     4.636000000     3.545000000
H    -6.598000000     4.807000000     3.007000000
H    -6.091000000     3.926000000     4.129000000
O     0.787000000     5.159000000     6.562000000
H     1.090000000     4.572000000     5.869000000
H     1.458000000     5.093000000     7.242000000
O     1.716000000    -2.254000000     2.656000000
H     0.867000000    -2.693000000     2.715000000
H     1.591000000    -1.580000000     1.987000000
O    -3.532000000     5.984000000     2.627000000
H    -2.920000000     5.327000000     2.959000000
H    -4.301000000     5.901000000     3.191000000
O     0.810000000     2.849000000     4.285000000
H     0.921000000     1.900000000     4.232000000
H     0.168000000     3.054000000     3.605000000
O    -4.724000000     2.270000000     1.718000000
H    -3.856000000     1.973000000     1.993000000
H    -5.036000000     2.805000000     2.448000000
O     6.588000000    -0.746000000     0.022000000
H     6.018000000    -0.351000000     0.682000000
H     6.757000000    -0.040000000    -0.602000000
O     4.219000000     4.510000000     1.160000000
H     4.203000000     3.808000000     0.510000000
H     4.805000000     4.189000000     1.846000000
O     2.103000000     5.115000000    -0.411000000
H     2.864000000     5.351000000     0.120000000
H     1.375000000     5.091000000     0.211000000
O    -6.884000000     2.012000000     4.195000000
H    -7.293000000     2.252000000     5.027000000
H    -7.039000000     1.071000000     4.115000000
O    -1.924000000    -6.436000000     0.050000000
H    -1.357000000    -7.138000000    -0.269000000
H    -2.579000000    -6.882000000     0.587000000
O     2.399000000     2.090000000    -3.755000000
H     1.744000000     1.468000000    -4.073000000
H     1.905000000     2.892000000    -3.586000000
O     3.283000000    -1.248000000    -5.012000000
H     2.402000000    -0.964000000    -4.769000000
H     3.792000000    -0.438000000    -5.055000000
O     5.768000000    -1.894000000    -3.749000000
H     5.064000000    -1.469000000    -4.240000000
H     5.567000000    -1.706000000    -2.832000000
O    -0.765000000    -0.028000000     6.809000000
H    -0.259000000    -0.740000000     7.199000000
H    -1.352000000    -0.462000000     6.189000000
O     0.239000000     6.890000000     3.531000000
H     0.137000000     7.747000000     3.117000000
H    -0.385000000     6.898000000     4.257000000
O    -2.102000000     6.773000000     5.504000000
H    -3.051000000     6.890000000     5.550000000
H    -1.985000000     5.843000000     5.309000000
O     0.417000000     4.961000000     1.670000000
H     0.518000000     5.464000000     2.478000000
H    -0.159000000     4.236000000     1.910000000
O    -0.790000000    -3.257000000     2.650000000
H    -0.564000000    -4.134000000     2.959000000
H    -1.386000000    -3.407000000     1.915000000
O    -1.776000000    -2.773000000    -3.185000000
H    -2.503000000    -3.348000000    -2.944000000
H    -1.254000000    -2.699000000    -2.387000000
O     3.656000000     0.606000000     3.958000000
H     2.729000000     0.442000000     3.784000000
H     4.118000000     0.113000000     3.279000000
O     1.656000000    -5.193000000    -2.793000000
H     2.333000000    -5.859000000    -2.671000000
H     1.281000000    -5.069000000    -1.921000000
O    -1.350000000     4.931000000    -2.333000000
H    -1.147000000     5.469000000    -1.568000000
H    -1.938000000     4.253000000    -2.000000000
O     6.479000000    -3.245000000    -1.002000000
H     6.466000000    -2.367000000    -0.621000000
H     7.260000000    -3.254000000    -1.556000000
O     4.809000000     1.210000000    -4.229000000
H     5.311000000     1.985000000    -4.485000000
H     3.941000000     1.548000000    -4.013000000
O    -3.966000000    -1.360000000    -0.956000000
H    -4.122000000    -1.574000000    -1.876000000
H    -3.506000000    -2.124000000    -0.607000000
O    -1.085000000    -6.451000000    -4.022000000
H    -1.561000000    -5.986000000    -4.711000000
H    -0.371000000    -5.860000000    -3.784000000
O    -4.343000000    -0.607000000     3.321000000
H    -3.867000000     0.145000000     2.970000000
H    -4.825000000    -0.957000000     2.571000000
O    -3.213000000     2.855000000    -1.206000000
H    -3.853000000     2.167000000    -1.389000000
H    -3.291000000     3.011000000    -0.265000000
O     4.513000000     0.754000000     1.266000000
H     4.422000000     0.962000000     0.336000000
H     4.024000000     1.444000000     1.714000000
O     2.542000000    -4.064000000    -5.055000000
H     2.752000000    -3.176000000    -4.768000000
H     2.137000000    -4.474000000    -4.291000000
O    -6.975000000    -2.843000000     0.654000000
H    -6.513000000    -2.047000000     0.915000000
H    -7.281000000    -2.662000000    -0.234000000
O     1.292000000     4.516000000    -2.958000000
H     1.804000000     4.548000000    -2.150000000
H     0.381000000     4.554000000    -2.666000000
O    -0.740000000     1.808000000    -2.948000000
H    -0.609000000     1.252000000    -2.180000000
H    -1.379000000     2.462000000    -2.664000000
O    -1.157000000    -1.799000000    -5.771000000
H    -0.255000000    -1.511000000    -5.631000000
H    -1.512000000    -1.910000000    -4.890000000
O    -5.819000000    -0.307000000     1.057000000
H    -5.839000000     0.644000000     1.169000000
H    -5.314000000    -0.443000000     0.256000000
O    -1.693000000     6.954000000     0.676000000
H    -2.128000000     6.756000000     1.505000000
H    -0.855000000     6.495000000     0.730000000
O    -5.444000000    -2.085000000     5.342000000
H    -5.233000000    -1.537000000     4.586000000
H    -5.935000000    -2.820000000     4.975000000
O     0.553000000     0.305000000    -5.152000000
H    -0.199000000     0.763000000    -4.777000000
H     0.639000000     0.667000000    -6.034000000
O    -2.047000000    -1.464000000     4.308000000
H    -1.751000000    -2.153000000     3.713000000
H    -2.940000000    -1.270000000     4.025000000
O     4.256000000     2.579000000    -1.126000000
H     5.025000000     3.034000000    -1.469000000
H     3.636000000     2.572000000    -1.855000000
O     4.692000000    -4.478000000     1.029000000
H     3.913000000    -4.668000000     0.506000000
H     5.365000000    -4.260000000     0.385000000
