161
-3042.01101
C     0.668000000     1.266000000     0.322000000
H     1.228000000     2.162000000     0.579000000
C     1.044000000     0.350000000    -0.733000000
H     1.880000000     0.613000000    -1.376000000
C     0.276000000    -0.810000000    -0.922000000
C     0.718000000    -1.732000000    -2.013000000
H     0.579000000    -2.806000000    -1.872000000
H     0.133000000    -1.548000000    -2.917000000
H     1.754000000    -1.483000000    -2.252000000
C    -0.833000000    -1.105000000    -0.089000000
H    -1.442000000    -1.997000000    -0.205000000
C    -1.185000000    -0.151000000     0.862000000
H    -2.004000000    -0.317000000     1.557000000
C    -0.449000000     1.001000000     1.148000000
C    -0.731000000     1.947000000     2.335000000
O    -1.701000000     1.757000000     3.032000000
O     0.068000000     2.853000000     2.537000000
O    -2.059000000    -4.503000000     0.948000000
H    -2.430000000    -4.945000000     0.184000000
H    -1.139000000    -4.768000000     0.955000000
O    -4.962000000    -0.776000000    -1.253000000
H    -4.157000000    -0.456000000    -1.662000000
H    -4.663000000    -1.252000000    -0.478000000
O     4.531000000    -2.679000000    -0.183000000
H     4.670000000    -3.621000000    -0.282000000
H     5.056000000    -2.285000000    -0.880000000
O     0.252000000     7.170000000     5.001000000
H     0.164000000     6.243000000     5.221000000
H     1.003000000     7.206000000     4.409000000
O     2.297000000     0.804000000     4.547000000
H     2.223000000     1.454000000     5.246000000
H     1.466000000     0.330000000     4.572000000
O    -0.127000000     4.403000000     4.679000000
H    -0.030000000     3.759000000     3.978000000
H    -0.122000000     3.883000000     5.484000000
O    -3.672000000     0.662000000     4.341000000
H    -4.266000000     1.263000000     4.791000000
H    -2.957000000     1.218000000     4.034000000
O     2.712000000     2.555000000     2.541000000
H     2.883000000     1.915000000     3.233000000
H     1.758000000     2.594000000     2.481000000
O    -0.836000000     4.756000000     0.816000000
H    -1.741000000     4.893000000     1.096000000
H    -0.480000000     4.135000000     1.452000000
O    -3.716000000     1.730000000     1.278000000
H    -3.169000000     1.679000000     2.061000000
H    -4.611000000     1.789000000     1.615000000
O    -1.747000000    -2.644000000    -7.028000000
H    -2.334000000    -2.085000000    -7.537000000
H    -0.943000000    -2.683000000    -7.546000000
O    -0.893000000     0.523000000     7.570000000
H    -0.069000000     0.819000000     7.956000000
H    -0.686000000     0.376000000     6.647000000
O    -4.664000000     5.693000000     1.989000000
H    -3.892000000     5.497000000     2.520000000
H    -4.412000000     6.458000000     1.471000000
O    -6.279000000     1.663000000     2.304000000
H    -7.228000000     1.757000000     2.223000000
H    -6.161000000     0.889000000     2.856000000
O    -5.026000000    -4.341000000    -1.751000000
H    -5.703000000    -3.830000000    -2.194000000
H    -4.228000000    -3.823000000    -1.857000000
O     0.856000000    -1.939000000     3.116000000
H     1.533000000    -1.501000000     2.600000000
H     1.194000000    -2.823000000     3.254000000
O    -0.518000000     7.245000000    -0.770000000
H    -0.699000000     6.429000000    -0.303000000
H    -0.164000000     7.830000000    -0.101000000
O     1.486000000     2.532000000     6.654000000
H     1.051000000     2.189000000     7.434000000
H     2.095000000     3.190000000     6.989000000
O     3.003000000    -0.872000000     1.399000000
H     2.349000000    -0.866000000     0.700000000
H     3.441000000    -1.719000000     1.311000000
O    -1.140000000    -6.217000000    -2.172000000
H    -1.198000000    -6.067000000    -3.116000000
H    -2.006000000    -6.544000000    -1.928000000
O    -1.623000000    -4.358000000    -4.458000000
H    -1.091000000    -3.964000000    -5.150000000
H    -2.338000000    -4.793000000    -4.923000000
O     3.852000000    -2.563000000    -4.954000000
H     4.555000000    -2.182000000    -4.428000000
H     3.461000000    -1.816000000    -5.407000000
O     3.183000000    -5.197000000    -5.708000000
H     3.405000000    -4.267000000    -5.652000000
H     3.124000000    -5.485000000    -4.797000000
O     2.981000000    -6.345000000    -3.357000000
H     2.496000000    -5.855000000    -2.694000000
H     2.937000000    -7.255000000    -3.062000000
O     0.526000000    -5.321000000     0.325000000
H     1.479000000    -5.237000000     0.361000000
H     0.330000000    -5.420000000    -0.607000000
O    -2.320000000     5.538000000     3.330000000
H    -1.469000000     5.212000000     3.626000000
H    -2.290000000     6.478000000     3.505000000
O    -5.871000000     3.906000000     3.784000000
H    -5.512000000     4.375000000     3.031000000
H    -5.961000000     3.002000000     3.483000000
O    -1.903000000    -2.208000000     6.128000000
H    -1.807000000    -2.554000000     5.240000000
H    -1.759000000    -1.267000000     6.035000000
O    -1.939000000    -2.838000000     3.196000000
H    -1.155000000    -2.310000000     3.044000000
H    -2.006000000    -3.396000000     2.421000000
O    -4.211000000    -1.698000000     3.273000000
H    -3.321000000    -2.050000000     3.266000000
H    -4.133000000    -0.857000000     3.723000000
O    -0.446000000    -0.132000000     4.898000000
H    -0.117000000    -0.843000000     4.348000000
H    -0.808000000     0.502000000     4.279000000
O     2.019000000     1.034000000    -4.231000000
H     2.414000000     1.005000000    -5.103000000
H     2.154000000     0.154000000    -3.878000000
O     4.155000000     3.089000000    -3.727000000
H     3.370000000     2.868000000    -4.229000000
H     4.461000000     3.910000000    -4.112000000
O    -3.054000000    -2.704000000    -2.924000000
H    -2.810000000    -1.780000000    -2.867000000
H    -2.349000000    -3.108000000    -3.430000000
O     3.707000000     5.292000000     3.433000000
H     3.212000000     4.499000000     3.224000000
H     4.605000000     5.090000000     3.171000000
O     0.549000000     3.003000000    -2.956000000
H     1.049000000     2.500000000    -3.598000000
H     0.094000000     2.341000000    -2.434000000
O     1.901000000     5.561000000    -0.632000000
H     1.273000000     5.146000000    -1.223000000
H     1.478000000     5.534000000     0.226000000
O     6.137000000    -1.285000000    -3.188000000
H     5.394000000    -0.701000000    -3.038000000
H     6.904000000    -0.714000000    -3.141000000
O    -1.872000000     0.016000000    -5.039000000
H    -2.383000000     0.780000000    -5.306000000
H    -1.969000000    -0.602000000    -5.763000000
O    -4.187000000    -2.527000000     0.828000000
H    -4.216000000    -2.112000000     1.690000000
H    -3.515000000    -3.204000000     0.910000000
O     4.264000000     1.459000000     0.335000000
H     3.755000000     2.090000000     0.844000000
H     4.008000000     0.606000000     0.686000000
O    -2.628000000     0.182000000    -2.583000000
H    -1.939000000     0.362000000    -1.943000000
H    -2.157000000     0.007000000    -3.398000000
O    -0.944000000    -6.103000000     3.198000000
H    -1.307000000    -5.952000000     2.325000000
H    -1.489000000    -6.799000000     3.566000000
O    -3.702000000     2.901000000    -1.262000000
H    -3.849000000     2.547000000    -0.385000000
H    -3.522000000     2.132000000    -1.804000000
O    -5.154000000     2.275000000     5.746000000
H    -5.560000000     2.949000000     5.200000000
H    -4.325000000     2.662000000     6.027000000
O     4.509000000     0.633000000    -2.357000000
H     4.420000000     0.756000000    -1.412000000
H     4.122000000     1.421000000    -2.739000000
O     4.605000000     5.306000000     0.455000000
H     3.743000000     5.505000000     0.088000000
H     5.122000000     5.012000000    -0.295000000
O    -3.192000000     2.673000000     7.440000000
H    -3.426000000     2.425000000     8.335000000
H    -2.509000000     2.051000000     7.190000000
