161
-3062.61151
C     0.545000000     0.266000000     1.377000000
H     1.047000000     0.597000000     2.283000000
C     1.160000000    -0.549000000     0.371000000
H     2.152000000    -0.958000000     0.545000000
C     0.549000000    -0.709000000    -0.860000000
C     1.219000000    -1.523000000    -1.955000000
H     2.294000000    -1.407000000    -1.799000000
H     0.958000000    -2.554000000    -1.707000000
H     0.857000000    -1.308000000    -2.962000000
C    -0.668000000    -0.142000000    -1.112000000
H    -1.176000000    -0.141000000    -2.073000000
C    -1.279000000     0.672000000    -0.145000000
H    -2.192000000     1.236000000    -0.319000000
C    -0.677000000     0.842000000     1.066000000
C    -1.378000000     1.698000000     2.105000000
O    -2.487000000     2.162000000     1.952000000
O    -0.921000000     1.811000000     3.226000000
O    -1.120000000    -2.542000000     3.030000000
H    -0.865000000    -1.734000000     3.476000000
H    -0.310000000    -2.863000000     2.634000000
O     3.398000000     4.582000000     4.717000000
H     2.504000000     4.320000000     4.933000000
H     3.343000000     5.527000000     4.576000000
O    -3.635000000     2.538000000    -2.544000000
H    -3.770000000     2.050000000    -3.356000000
H    -4.062000000     2.007000000    -1.871000000
O     2.544000000    -4.916000000    -0.805000000
H     2.482000000    -4.856000000     0.148000000
H     3.115000000    -4.189000000    -1.054000000
O     0.021000000     5.215000000     0.547000000
H    -0.931000000     5.113000000     0.560000000
H     0.315000000     4.640000000    -0.159000000
O     1.138000000     3.198000000     4.429000000
H     0.424000000     2.767000000     3.959000000
H     1.768000000     2.498000000     4.602000000
O    -2.768000000     3.317000000     4.517000000
H    -2.038000000     2.807000000     4.165000000
H    -2.984000000     2.887000000     5.345000000
O    -4.880000000     2.697000000     2.431000000
H    -3.946000000     2.488000000     2.456000000
H    -5.297000000     1.985000000     2.916000000
O     4.886000000     1.911000000     4.427000000
H     4.442000000     2.759000000     4.444000000
H     4.183000000     1.276000000     4.287000000
O    -0.645000000     5.151000000     5.567000000
H    -0.146000000     4.340000000     5.474000000
H    -1.315000000     5.100000000     4.884000000
O     2.429000000     4.268000000     1.830000000
H     1.547000000     4.488000000     1.532000000
H     2.299000000     3.563000000     2.464000000
O     0.381000000    -1.411000000    -7.551000000
H    -0.526000000    -1.130000000    -7.666000000
H     0.859000000    -0.605000000    -7.355000000
O    -1.023000000     0.986000000     6.695000000
H    -0.927000000     0.974000000     7.647000000
H    -1.707000000     1.635000000     6.531000000
O    -6.040000000     4.476000000     0.176000000
H    -6.729000000     4.024000000    -0.310000000
H    -5.888000000     3.925000000     0.944000000
O     0.399000000     1.423000000    -4.551000000
H    -0.250000000     0.720000000    -4.580000000
H     0.495000000     1.623000000    -3.620000000
O    -4.527000000    -1.231000000     5.224000000
H    -3.927000000    -1.672000000     5.825000000
H    -3.971000000    -0.627000000     4.731000000
O     3.755000000     1.216000000     1.204000000
H     3.422000000     2.043000000     0.856000000
H     4.591000000     1.446000000     1.611000000
O     2.325000000     0.791000000     5.416000000
H     1.555000000     0.235000000     5.298000000
H     2.874000000     0.310000000     6.035000000
O    -3.086000000     2.993000000     7.157000000
H    -3.712000000     2.284000000     7.306000000
H    -3.287000000     3.637000000     7.836000000
O     3.233000000    -1.363000000     2.545000000
H     3.422000000    -0.570000000     2.044000000
H     4.035000000    -1.530000000     3.040000000
O    -2.495000000    -3.078000000    -4.848000000
H    -3.041000000    -3.706000000    -4.374000000
H    -3.121000000    -2.501000000    -5.287000000
O     4.294000000     2.115000000    -4.936000000
H     3.984000000     1.788000000    -4.092000000
H     5.215000000     1.859000000    -4.969000000
O     3.977000000    -2.094000000    -4.079000000
H     4.624000000    -1.442000000    -4.346000000
H     3.581000000    -2.389000000    -4.899000000
O     4.767000000    -3.360000000    -1.602000000
H     4.632000000    -2.413000000    -1.643000000
H     5.128000000    -3.587000000    -2.459000000
O    -3.914000000     5.310000000     3.353000000
H    -4.621000000     4.899000000     2.855000000
H    -3.482000000     4.582000000     3.800000000
O     1.908000000     0.955000000    -6.835000000
H     1.335000000     1.176000000    -6.100000000
H     2.644000000     1.561000000    -6.756000000
O    -4.642000000    -1.122000000    -1.826000000
H    -4.712000000    -0.217000000    -1.524000000
H    -4.942000000    -1.646000000    -1.083000000
O     1.451000000    -3.500000000     2.073000000
H     1.747000000    -3.866000000     2.906000000
H     2.007000000    -2.733000000     1.937000000
O     0.848000000    -6.845000000    -1.177000000
H     1.588000000    -6.238000000    -1.189000000
H     0.920000000    -7.326000000    -2.002000000
O    -2.559000000     4.492000000     0.238000000
H    -2.554000000     3.717000000     0.800000000
H    -3.453000000     4.828000000     0.301000000
O    -1.322000000    -4.504000000     0.808000000
H    -1.411000000    -3.588000000     0.543000000
H    -0.453000000    -4.555000000     1.205000000
O    -3.274000000    -1.821000000     0.994000000
H    -2.973000000    -1.130000000     0.405000000
H    -2.545000000    -1.953000000     1.601000000
O    -0.330000000    -0.614000000     4.755000000
H    -0.302000000     0.120000000     4.141000000
H    -0.420000000    -0.204000000     5.615000000
O    -1.473000000    -0.520000000    -4.867000000
H    -2.359000000    -0.178000000    -4.984000000
H    -1.601000000    -1.423000000    -4.576000000
O    -4.392000000    -0.332000000    -4.537000000
H    -4.756000000     0.554000000    -4.538000000
H    -4.649000000    -0.696000000    -3.690000000
O     6.722000000    -0.464000000     0.241000000
H     6.023000000    -0.531000000    -0.409000000
H     6.711000000     0.454000000     0.512000000
O     1.316000000     2.335000000    -1.002000000
H     0.737000000     2.782000000    -1.619000000
H     0.767000000     1.658000000    -0.605000000
O    -1.842000000    -6.190000000    -1.536000000
H    -1.051000000    -6.704000000    -1.698000000
H    -1.567000000    -5.519000000    -0.911000000
O     0.207000000    -3.438000000    -5.414000000
H    -0.701000000    -3.271000000    -5.159000000
H     0.515000000    -2.603000000    -5.765000000
O    -4.584000000     5.730000000    -1.794000000
H    -4.142000000     4.909000000    -2.011000000
H    -5.226000000     5.487000000    -1.127000000
O    -1.789000000     2.711000000    -5.476000000
H    -1.016000000     2.170000000    -5.312000000
H    -1.698000000     3.448000000    -4.872000000
O    -5.430000000    -0.266000000     2.124000000
H    -4.836000000    -0.840000000     1.639000000
H    -6.228000000    -0.247000000     1.596000000
O    -4.666000000     1.088000000    -0.310000000
H    -5.477000000     1.037000000     0.196000000
H    -4.086000000     1.632000000     0.224000000
O    -0.617000000     3.685000000    -2.351000000
H    -1.549000000     3.544000000    -2.190000000
H    -0.571000000     4.556000000    -2.745000000
O     2.483000000    -4.579000000    -3.876000000
H     1.670000000    -4.159000000    -4.156000000
H     3.083000000    -3.853000000    -3.708000000
O     3.590000000     2.559000000    -2.252000000
H     2.718000000     2.341000000    -1.921000000
H     3.830000000     3.358000000    -1.783000000
O     3.106000000    -2.660000000    -6.770000000
H     3.905000000    -2.177000000    -6.979000000
H     2.525000000    -2.495000000    -7.513000000
O     4.541000000     0.025000000    -1.248000000
H     4.013000000     0.270000000    -0.488000000
H     4.547000000     0.808000000    -1.798000000
