161
-3032.48056
C     0.750000000     0.700000000     0.989000000
H     1.342000000     1.357000000     1.621000000
C     1.334000000    -0.050000000     0.010000000
H     2.388000000     0.064000000    -0.233000000
C     0.500000000    -0.785000000    -0.818000000
C     1.094000000    -1.404000000    -2.036000000
H     0.381000000    -1.258000000    -2.850000000
H     2.090000000    -0.990000000    -2.204000000
H     1.253000000    -2.485000000    -2.039000000
C    -0.897000000    -0.732000000    -0.640000000
H    -1.521000000    -1.298000000    -1.327000000
C    -1.423000000     0.104000000     0.292000000
H    -2.484000000     0.188000000     0.511000000
C    -0.658000000     0.754000000     1.186000000
C    -1.232000000     1.691000000     2.238000000
O    -2.432000000     2.018000000     2.183000000
O    -0.489000000     2.124000000     3.117000000
O    -2.059000000    -1.826000000     3.707000000
H    -1.787000000    -1.923000000     4.620000000
H    -2.660000000    -1.081000000     3.715000000
O     3.661000000     2.796000000     5.012000000
H     2.774000000     2.496000000     4.814000000
H     4.201000000     2.009000000     4.943000000
O    -1.781000000    -5.573000000    -0.130000000
H    -2.067000000    -5.224000000    -0.975000000
H    -0.932000000    -5.159000000     0.024000000
O    -6.521000000    -0.276000000    -2.315000000
H    -6.118000000    -0.871000000    -1.682000000
H    -5.976000000     0.511000000    -2.284000000
O    -5.125000000     2.010000000    -1.616000000
H    -4.173000000     2.112000000    -1.619000000
H    -5.355000000     1.936000000    -0.690000000
O     5.421000000    -2.023000000    -0.726000000
H     6.044000000    -2.021000000    -1.453000000
H     5.392000000    -1.112000000    -0.433000000
O     0.837000000     6.619000000     2.030000000
H     1.698000000     7.034000000     2.081000000
H     0.920000000     5.829000000     2.565000000
O     1.471000000     1.013000000     4.734000000
H     0.916000000     1.363000000     4.037000000
H     1.778000000     0.171000000     4.396000000
O    -2.506000000     6.264000000     3.191000000
H    -1.866000000     6.953000000     3.011000000
H    -3.109000000     6.657000000     3.822000000
O    -3.587000000     3.809000000     3.723000000
H    -3.023000000     4.573000000     3.600000000
H    -3.154000000     3.110000000     3.232000000
O     1.245000000     4.021000000     3.031000000
H     1.121000000     4.445000000     3.880000000
H     0.679000000     3.250000000     3.064000000
O     3.203000000     3.290000000     1.200000000
H     3.816000000     3.962000000     1.500000000
H     2.414000000     3.437000000     1.721000000
O     0.900000000     5.667000000     5.199000000
H     0.243000000     5.107000000     5.614000000
H     1.069000000     6.355000000     5.842000000
O    -5.077000000     6.304000000     0.807000000
H    -4.281000000     5.783000000     0.915000000
H    -5.673000000     5.974000000     1.479000000
O     3.183000000     2.566000000    -3.770000000
H     2.726000000     3.389000000    -3.943000000
H     3.947000000     2.590000000    -4.347000000
O    -7.088000000     2.075000000     3.079000000
H    -8.027000000     2.065000000     2.895000000
H    -7.031000000     2.091000000     4.035000000
O    -5.796000000    -3.981000000    -1.248000000
H    -6.217000000    -3.397000000    -0.617000000
H    -5.241000000    -3.405000000    -1.774000000
O     1.529000000    -0.257000000     7.486000000
H     1.838000000     0.513000000     7.963000000
H     1.271000000     0.080000000     6.628000000
O     2.831000000    -1.693000000     4.293000000
H     3.108000000    -2.168000000     5.076000000
H     2.220000000    -2.286000000     3.857000000
O     3.337000000    -3.789000000     0.452000000
H     3.567000000    -3.498000000    -0.430000000
H     3.789000000    -3.175000000     1.032000000
O    -1.749000000     5.025000000     5.895000000
H    -2.290000000     5.672000000     5.443000000
H    -2.281000000     4.745000000     6.640000000
O     4.645000000    -2.042000000     2.213000000
H     4.207000000    -1.825000000     3.036000000
H     4.977000000    -1.204000000     1.890000000
O     5.305000000     0.257000000     0.944000000
H     5.722000000     0.840000000     1.578000000
H     5.131000000     0.814000000     0.185000000
O    -2.477000000    -5.268000000    -2.761000000
H    -1.799000000    -5.350000000    -3.432000000
H    -3.129000000    -5.928000000    -2.998000000
O    -1.031000000    -4.634000000    -5.119000000
H    -1.743000000    -4.117000000    -5.496000000
H    -0.337000000    -3.997000000    -4.948000000
O     3.759000000    -1.876000000    -6.724000000
H     4.142000000    -2.743000000    -6.859000000
H     4.368000000    -1.434000000    -6.133000000
O     1.874000000    -3.871000000    -5.117000000
H     2.000000000    -2.945000000    -4.909000000
H     2.700000000    -4.287000000    -4.871000000
O     4.174000000     1.559000000    -6.401000000
H     3.354000000     1.127000000    -6.164000000
H     4.850000000     0.907000000    -6.219000000
O    -6.449000000    -1.561000000     0.275000000
H    -5.965000000    -0.776000000     0.531000000
H    -7.304000000    -1.464000000     0.695000000
O     0.760000000    -4.702000000     0.218000000
H     1.680000000    -4.459000000     0.318000000
H     0.280000000    -4.023000000     0.691000000
O    -6.221000000     4.837000000     2.962000000
H    -5.476000000     4.677000000     3.541000000
H    -6.591000000     3.968000000     2.804000000
O    -2.701000000     4.566000000     0.958000000
H    -2.545000000     3.648000000     1.180000000
H    -2.416000000     5.051000000     1.732000000
O    -0.490000000    -2.689000000     1.704000000
H    -1.041000000    -2.407000000     2.434000000
H    -0.522000000    -1.960000000     1.085000000
O    -3.894000000     0.233000000     4.118000000
H    -4.343000000     0.856000000     4.689000000
H    -3.094000000     0.686000000     3.852000000
O    -0.981000000     2.027000000     6.581000000
H    -0.414000000     1.918000000     5.818000000
H    -1.496000000     2.810000000     6.387000000
O    -1.048000000    -1.626000000    -5.505000000
H    -1.784000000    -2.175000000    -5.776000000
H    -0.477000000    -1.596000000    -6.272000000
O     4.159000000    -5.073000000    -4.301000000
H     4.689000000    -5.505000000    -4.972000000
H     4.260000000    -5.625000000    -3.526000000
O     0.235000000     1.985000000    -2.450000000
H     0.835000000     1.266000000    -2.249000000
H    -0.442000000     1.587000000    -2.997000000
O    -3.765000000    -2.934000000    -2.840000000
H    -3.531000000    -2.516000000    -3.669000000
H    -3.222000000    -3.722000000    -2.808000000
O     1.740000000    -0.104000000    -7.078000000
H     2.492000000    -0.696000000    -7.053000000
H     1.285000000    -0.328000000    -7.890000000
O    -2.717000000     4.767000000    -1.824000000
H    -2.407000000     3.871000000    -1.958000000
H    -2.912000000     4.816000000    -0.889000000
O     1.223000000     4.260000000    -1.047000000
H     1.301000000     3.601000000    -0.357000000
H     0.936000000     3.768000000    -1.816000000
O    -1.566000000     0.691000000    -3.944000000
H    -1.173000000    -0.020000000    -4.450000000
H    -2.063000000     1.197000000    -4.587000000
O    -5.250000000     2.482000000     5.599000000
H    -5.907000000     3.053000000     5.997000000
H    -4.813000000     3.034000000     4.951000000
O    -5.067000000     1.373000000     1.035000000
H    -5.607000000     1.528000000     1.810000000
H    -4.174000000     1.562000000     1.323000000
O     0.733000000     2.430000000    -6.158000000
H     0.733000000     2.375000000    -5.203000000
H     0.838000000     1.524000000    -6.450000000
O    -2.454000000     1.992000000    -1.731000000
H    -1.605000000     1.900000000    -1.298000000
H    -2.358000000     1.509000000    -2.552000000
O     4.081000000     1.855000000    -0.880000000
H     3.710000000     2.467000000    -0.244000000
H     3.821000000     2.207000000    -1.731000000
