161
-3039.41473
C     1.314000000     0.843000000     0.047000000
H     2.312000000     1.218000000     0.259000000
C     1.157000000    -0.337000000    -0.661000000
H     2.026000000    -0.838000000    -1.081000000
C    -0.073000000    -1.037000000    -0.657000000
C    -0.221000000    -2.413000000    -1.276000000
H    -0.563000000    -3.148000000    -0.544000000
H    -0.986000000    -2.381000000    -2.055000000
H     0.720000000    -2.655000000    -1.773000000
C    -1.243000000    -0.483000000    -0.025000000
H    -2.215000000    -0.969000000    -0.050000000
C    -1.090000000     0.733000000     0.618000000
H    -1.942000000     1.194000000     1.112000000
C     0.196000000     1.360000000     0.705000000
C     0.208000000     2.616000000     1.582000000
O    -0.872000000     3.154000000     1.861000000
O     1.265000000     3.151000000     1.942000000
O     2.190000000    -2.782000000     1.913000000
H     2.453000000    -2.671000000     0.999000000
H     1.365000000    -3.266000000     1.868000000
O    -3.213000000     2.687000000     3.134000000
H    -2.390000000     2.892000000     2.690000000
H    -3.745000000     3.476000000     3.028000000
O    -2.914000000     7.297000000     1.716000000
H    -2.533000000     8.169000000     1.820000000
H    -2.217000000     6.698000000     1.983000000
O     0.871000000     3.018000000     4.956000000
H     1.095000000     2.316000000     4.345000000
H     0.932000000     3.818000000     4.434000000
O    -0.986000000     5.707000000     2.246000000
H    -0.431000000     5.972000000     2.979000000
H    -0.853000000     4.762000000     2.174000000
O    -0.844000000    -2.102000000     2.490000000
H    -0.579000000    -1.465000000     1.827000000
H    -0.533000000    -2.942000000     2.152000000
O    -3.259000000     6.433000000    -0.782000000
H    -3.078000000     5.497000000    -0.688000000
H    -2.966000000     6.817000000     0.044000000
O     3.569000000     3.563000000    -0.212000000
H     2.641000000     3.706000000    -0.398000000
H     3.690000000     3.898000000     0.676000000
O     1.017000000     1.541000000     7.122000000
H     1.671000000     2.026000000     7.625000000
H     0.965000000     2.005000000     6.286000000
O     1.084000000     3.800000000    -2.590000000
H     1.545000000     4.458000000    -3.110000000
H     0.444000000     4.300000000    -2.083000000
O     6.122000000    -3.836000000    -1.213000000
H     6.067000000    -3.128000000    -1.855000000
H     6.106000000    -4.636000000    -1.738000000
O    -6.772000000    -0.893000000     0.877000000
H    -6.281000000    -0.209000000     1.333000000
H    -6.393000000    -1.712000000     1.195000000
O    -2.187000000    -4.777000000    -6.792000000
H    -2.533000000    -4.042000000    -6.286000000
H    -1.242000000    -4.745000000    -6.647000000
O    -5.145000000     1.177000000     2.043000000
H    -4.872000000     0.426000000     2.569000000
H    -4.754000000     1.932000000     2.483000000
O     0.133000000     5.502000000    -0.680000000
H    -0.198000000     6.393000000    -0.568000000
H     0.307000000     5.198000000     0.211000000
O     5.629000000     4.990000000    -1.482000000
H     6.231000000     4.556000000    -2.086000000
H     4.827000000     4.469000000    -1.527000000
O     3.124000000    -4.218000000    -0.630000000
H     4.023000000    -4.178000000    -0.303000000
H     3.101000000    -3.582000000    -1.345000000
O     3.662000000     1.856000000     2.589000000
H     2.842000000     2.348000000     2.541000000
H     3.411000000     1.008000000     2.955000000
O     3.583000000     5.068000000     2.068000000
H     3.514000000     5.439000000     2.948000000
H     2.778000000     4.563000000     1.958000000
O     6.239000000     3.099000000     2.766000000
H     5.376000000     2.690000000     2.837000000
H     6.054000000     4.012000000     2.545000000
O     5.910000000     1.833000000    -0.597000000
H     5.168000000     2.434000000    -0.530000000
H     6.044000000     1.722000000    -1.538000000
O    -2.818000000    -2.329000000    -5.365000000
H    -3.604000000    -2.572000000    -4.876000000
H    -2.647000000    -1.423000000    -5.107000000
O    -1.564000000     3.700000000     6.609000000
H    -0.845000000     3.775000000     5.982000000
H    -1.351000000     2.924000000     7.126000000
O    -4.840000000    -2.853000000     1.298000000
H    -4.037000000    -3.128000000     0.855000000
H    -4.823000000    -3.319000000     2.135000000
O    -0.218000000    -4.730000000     1.711000000
H    -1.041000000    -5.128000000     1.424000000
H     0.423000000    -5.438000000     1.651000000
O    -5.861000000     0.549000000    -3.183000000
H    -5.288000000     0.645000000    -2.422000000
H    -5.313000000     0.796000000    -3.928000000
O    -2.158000000     2.373000000    -2.945000000
H    -1.617000000     1.799000000    -2.404000000
H    -2.670000000     1.776000000    -3.491000000
O     0.831000000     6.297000000     4.151000000
H     1.652000000     5.850000000     3.945000000
H     0.776000000     6.271000000     5.106000000
O    -4.815000000     1.425000000    -0.793000000
H    -4.176000000     2.106000000    -0.582000000
H    -4.999000000     1.001000000     0.045000000
O     2.403000000    -2.939000000    -6.652000000
H     3.062000000    -2.774000000    -7.326000000
H     2.310000000    -2.101000000    -6.198000000
O    -2.800000000     0.566000000     4.931000000
H    -3.543000000    -0.012000000     4.759000000
H    -2.854000000     1.235000000     4.248000000
O     3.253000000     5.325000000     4.809000000
H     4.125000000     5.228000000     5.191000000
H     2.723000000     5.701000000     5.512000000
O     1.915000000    -0.752000000    -5.220000000
H     2.347000000     0.101000000    -5.243000000
H     1.357000000    -0.717000000    -4.443000000
O     0.682000000     1.234000000    -3.274000000
H     0.697000000     2.173000000    -3.092000000
H     0.927000000     0.825000000    -2.444000000
O    -2.728000000     3.428000000    -0.361000000
H    -2.227000000     3.473000000    -1.175000000
H    -2.065000000     3.344000000     0.324000000
O    -1.626000000    -6.422000000    -1.797000000
H    -2.462000000    -6.081000000    -2.113000000
H    -1.145000000    -6.653000000    -2.592000000
O    -2.566000000    -5.555000000     0.944000000
H    -3.519000000    -5.542000000     0.848000000
H    -2.242000000    -5.810000000     0.080000000
O    -4.043000000     5.317000000     3.953000000
H    -4.215000000     6.071000000     3.388000000
H    -3.300000000     5.587000000     4.493000000
O     2.542000000    -5.126000000    -4.394000000
H     2.775000000    -4.485000000    -3.723000000
H     1.865000000    -4.693000000    -4.915000000
O    -1.322000000    -0.131000000    -6.276000000
H    -0.554000000     0.275000000    -6.677000000
H    -1.402000000    -0.978000000    -6.715000000
O     2.672000000    -0.458000000     3.789000000
H     1.864000000    -0.253000000     4.258000000
H     2.458000000    -1.235000000     3.271000000
O     4.734000000    -0.664000000    -1.828000000
H     5.326000000    -0.678000000    -1.076000000
H     5.066000000     0.043000000    -2.382000000
O     5.471000000    -0.325000000     0.948000000
H     6.137000000     0.341000000     0.777000000
H     4.640000000     0.120000000     0.784000000
O     2.399000000    -6.917000000    -0.705000000
H     2.288000000    -7.279000000    -1.584000000
H     2.347000000    -5.969000000    -0.827000000
O    -0.131000000     0.052000000     4.428000000
H    -0.418000000    -0.759000000     4.008000000
H    -0.911000000     0.608000000     4.432000000
O    -4.914000000    -0.924000000     3.699000000
H    -4.405000000    -1.735000000     3.700000000
H    -5.633000000    -1.092000000     4.309000000
O     3.366000000    -2.649000000    -3.012000000
H     3.551000000    -2.553000000    -3.947000000
H     3.685000000    -1.836000000    -2.620000000
O    -0.149000000    -6.934000000    -4.219000000
H     0.217000000    -6.152000000    -4.633000000
H     0.599000000    -7.521000000    -4.112000000
