161
-3034.03269
C     1.435000000    -0.345000000     0.117000000
H     2.457000000    -0.653000000     0.325000000
C     0.630000000     0.094000000     1.160000000
H     0.992000000     0.146000000     2.183000000
C    -0.749000000     0.318000000     0.876000000
C    -1.689000000     0.837000000     2.036000000
H    -1.241000000     1.567000000     2.714000000
H    -2.591000000     1.253000000     1.582000000
H    -2.016000000     0.081000000     2.754000000
C    -1.181000000     0.164000000    -0.433000000
H    -2.251000000     0.328000000    -0.523000000
C    -0.425000000    -0.201000000    -1.477000000
H    -0.798000000    -0.294000000    -2.494000000
C     0.920000000    -0.446000000    -1.199000000
C     1.931000000    -0.831000000    -2.262000000
O     1.524000000    -0.849000000    -3.404000000
O     3.055000000    -1.172000000    -1.962000000
O    -1.001000000    -4.463000000    -4.667000000
H    -0.698000000    -4.941000000    -3.895000000
H    -1.950000000    -4.591000000    -4.670000000
O     5.241000000    -1.057000000     0.051000000
H     5.132000000    -1.644000000    -0.697000000
H     4.824000000    -0.240000000    -0.223000000
O     4.713000000     1.292000000    -5.189000000
H     4.065000000     1.747000000    -5.726000000
H     5.557000000     1.564000000    -5.550000000
O    -3.215000000    -3.793000000     1.449000000
H    -3.224000000    -4.190000000     2.320000000
H    -2.314000000    -3.492000000     1.333000000
O    -4.587000000     1.405000000    -2.030000000
H    -5.291000000     1.990000000    -1.749000000
H    -3.783000000     1.856000000    -1.772000000
O     3.516000000    -5.138000000     2.809000000
H     3.005000000    -5.670000000     3.418000000
H     2.889000000    -4.877000000     2.134000000
O    -2.266000000     2.104000000    -6.232000000
H    -1.562000000     2.733000000    -6.071000000
H    -1.823000000     1.257000000    -6.282000000
O     0.168000000    -0.009000000     5.008000000
H     0.079000000     0.933000000     4.860000000
H     0.888000000    -0.087000000     5.633000000
O    -5.076000000    -1.246000000    -0.634000000
H    -4.696000000    -0.433000000    -0.968000000
H    -4.882000000    -1.234000000     0.303000000
O     2.071000000    -5.527000000    -2.193000000
H     2.405000000    -5.750000000    -3.062000000
H     1.181000000    -5.880000000    -2.182000000
O    -2.009000000     2.000000000     6.710000000
H    -1.422000000     1.953000000     5.956000000
H    -1.424000000     2.044000000     7.467000000
O     7.839000000    -2.146000000    -3.102000000
H     6.889000000    -2.247000000    -3.152000000
H     8.163000000    -2.517000000    -3.923000000
O    -0.614000000     3.039000000    -1.655000000
H     0.117000000     2.677000000    -2.156000000
H    -1.053000000     2.273000000    -1.285000000
O     4.406000000    -5.632000000    -4.447000000
H     4.282000000    -4.772000000    -4.045000000
H     3.775000000    -5.652000000    -5.167000000
O     7.070000000    -1.054000000     2.143000000
H     6.506000000    -0.608000000     1.511000000
H     7.948000000    -0.721000000     1.957000000
O     7.553000000     0.805000000    -2.404000000
H     7.839000000    -0.036000000    -2.761000000
H     6.597000000     0.748000000    -2.397000000
O    -6.454000000     3.388000000    -0.910000000
H    -5.681000000     3.182000000    -0.384000000
H    -6.608000000     4.320000000    -0.756000000
O    -4.596000000    -3.070000000    -2.583000000
H    -4.657000000    -2.364000000    -1.940000000
H    -4.927000000    -3.842000000    -2.123000000
O     0.144000000     3.426000000    -5.896000000
H     0.635000000     4.117000000    -5.451000000
H     0.398000000     2.622000000    -5.443000000
O    -5.729000000     1.241000000     0.886000000
H    -5.431000000     0.534000000     1.459000000
H    -6.672000000     1.102000000     0.805000000
O    -4.458000000     2.769000000     2.869000000
H    -4.877000000     3.405000000     3.449000000
H    -5.182000000     2.254000000     2.515000000
O    -3.655000000     3.268000000    -0.158000000
H    -3.771000000     4.181000000     0.104000000
H    -3.561000000     2.792000000     0.668000000
O    -0.782000000     4.921000000     0.672000000
H    -0.789000000     4.586000000    -0.224000000
H    -0.040000000     5.525000000     0.696000000
O    -0.902000000    -0.454000000    -6.650000000
H    -1.112000000    -0.460000000    -7.584000000
H    -0.874000000    -1.379000000    -6.405000000
O    -1.963000000     3.764000000     3.314000000
H    -2.896000000     3.573000000     3.218000000
H    -1.690000000     4.063000000     2.447000000
O    -2.226000000     4.809000000    -3.432000000
H    -1.987000000     4.521000000    -4.313000000
H    -1.628000000     4.335000000    -2.855000000
O     0.230000000     2.693000000     4.751000000
H     1.047000000     3.181000000     4.649000000
H    -0.423000000     3.219000000     4.289000000
O    -2.443000000    -0.983000000     5.606000000
H    -1.573000000    -1.071000000     5.218000000
H    -2.388000000    -0.193000000     6.144000000
O     2.588000000    -4.829000000    -6.556000000
H     1.835000000    -5.352000000    -6.829000000
H     2.208000000    -4.103000000    -6.061000000
O    -4.590000000    -0.403000000    -4.152000000
H    -4.595000000     0.262000000    -3.463000000
H    -4.114000000    -1.140000000    -3.770000000
O     1.095000000     2.804000000     1.654000000
H     0.308000000     3.331000000     1.518000000
H     0.847000000     1.924000000     1.368000000
O    -0.627000000    -2.689000000     1.236000000
H    -0.119000000    -2.248000000     0.555000000
H    -0.046000000    -2.704000000     1.996000000
O     1.008000000    -2.507000000     3.441000000
H     0.953000000    -1.582000000     3.682000000
H     1.879000000    -2.778000000     3.729000000
O     5.430000000    -1.366000000    -5.903000000
H     5.111000000    -0.472000000    -5.781000000
H     6.326000000    -1.260000000    -6.223000000
O    -3.587000000    -3.383000000     6.631000000
H    -4.173000000    -3.590000000     5.903000000
H    -3.015000000    -2.696000000     6.291000000
O     2.180000000    -1.613000000    -7.331000000
H     1.847000000    -2.099000000    -6.576000000
H     2.186000000    -0.700000000    -7.044000000
O     3.544000000     3.198000000     0.938000000
H     4.086000000     2.843000000     1.642000000
H     2.657000000     3.208000000     1.300000000
O     4.812000000    -2.503000000    -3.579000000
H     3.996000000    -2.211000000    -3.174000000
H     4.875000000    -1.993000000    -4.387000000
O     6.397000000    -4.027000000     0.401000000
H     5.808000000    -4.782000000     0.406000000
H     5.842000000    -3.289000000     0.654000000
O     4.381000000    -1.730000000     3.668000000
H     3.882000000    -1.290000000     2.979000000
H     5.282000000    -1.735000000     3.346000000
O     4.879000000     0.785000000    -2.479000000
H     4.296000000     0.031000000    -2.386000000
H     4.793000000     1.043000000    -3.396000000
O     3.602000000    -3.737000000    -0.847000000
H     3.227000000    -2.877000000    -1.037000000
H     3.187000000    -4.324000000    -1.480000000
O     1.088000000    -5.242000000     1.007000000
H     0.145000000    -5.354000000     1.124000000
H     1.205000000    -5.158000000     0.061000000
O     3.122000000     2.908000000    -1.785000000
H     3.004000000     3.243000000    -0.896000000
H     4.011000000     2.551000000    -1.791000000
O     1.439000000     2.038000000    -3.775000000
H     1.493000000     1.087000000    -3.871000000
H     2.229000000     2.275000000    -3.288000000
O    -1.128000000    -3.640000000     4.671000000
H    -1.676000000    -4.135000000     4.062000000
H    -0.513000000    -3.168000000     4.111000000
O     1.315000000    -2.992000000    -5.071000000
H     1.386000000    -2.282000000    -4.433000000
H     0.533000000    -3.476000000    -4.804000000
O    -4.807000000    -1.424000000     2.039000000
H    -4.280000000    -2.220000000     1.976000000
H    -4.825000000    -1.222000000     2.974000000
