161
-3048.49908
C     0.488000000     1.282000000    -0.494000000
H     0.895000000     2.156000000    -0.997000000
C     0.704000000     0.047000000    -1.120000000
H     1.337000000    -0.036000000    -2.000000000
C     0.106000000    -1.114000000    -0.550000000
C     0.400000000    -2.530000000    -1.112000000
H     0.896000000    -3.187000000    -0.394000000
H    -0.433000000    -3.046000000    -1.593000000
H     1.133000000    -2.512000000    -1.921000000
C    -0.590000000    -0.933000000     0.623000000
H    -0.860000000    -1.790000000     1.235000000
C    -0.860000000     0.307000000     1.186000000
H    -1.420000000     0.405000000     2.112000000
C    -0.266000000     1.445000000     0.648000000
C    -0.421000000     2.803000000     1.296000000
O    -0.988000000     2.907000000     2.331000000
O    -0.120000000     3.803000000     0.749000000
O     3.522000000    -2.590000000     3.817000000
H     2.801000000    -3.190000000     3.626000000
H     3.354000000    -1.829000000     3.261000000
O    -4.478000000    -6.140000000    -1.061000000
H    -4.629000000    -6.043000000    -0.121000000
H    -3.748000000    -5.549000000    -1.249000000
O    -2.140000000     2.006000000     4.869000000
H    -1.778000000     2.075000000     3.986000000
H    -1.793000000     1.180000000     5.206000000
O     3.962000000     1.584000000     0.464000000
H     4.828000000     1.634000000     0.869000000
H     3.403000000     2.120000000     1.027000000
O     1.153000000     0.912000000     3.644000000
H     0.467000000     0.333000000     3.976000000
H     0.838000000     1.794000000     3.841000000
O     0.309000000    -0.264000000    -6.261000000
H     0.313000000     0.089000000    -5.371000000
H     1.217000000    -0.187000000    -6.553000000
O     1.332000000     6.195000000    -3.235000000
H     1.990000000     6.890000000    -3.221000000
H     1.330000000     5.849000000    -2.343000000
O    -4.923000000    -2.357000000    -3.010000000
H    -4.145000000    -2.011000000    -3.447000000
H    -4.893000000    -1.978000000    -2.131000000
O    -1.147000000    -3.641000000    -5.614000000
H    -0.494000000    -3.040000000    -5.255000000
H    -1.985000000    -3.206000000    -5.457000000
O     2.843000000    -4.598000000     0.572000000
H     2.233000000    -4.719000000     1.300000000
H     3.442000000    -5.342000000     0.635000000
O    -1.735000000    -6.878000000    -4.493000000
H    -2.498000000    -6.319000000    -4.640000000
H    -1.470000000    -6.689000000    -3.593000000
O     4.485000000    -2.688000000    -4.897000000
H     3.941000000    -1.922000000    -4.711000000
H     5.379000000    -2.395000000    -4.719000000
O     2.329000000     7.261000000     1.397000000
H     1.610000000     6.672000000     1.171000000
H     1.909000000     7.982000000     1.868000000
O     2.255000000     5.012000000    -0.731000000
H     1.830000000     4.498000000    -0.044000000
H     2.954000000     5.484000000    -0.279000000
O    -0.243000000     8.352000000    -1.303000000
H     0.055000000     8.108000000    -0.426000000
H     0.205000000     9.178000000    -1.486000000
O    -1.556000000    -4.458000000     0.122000000
H    -2.307000000    -4.409000000     0.712000000
H    -1.247000000    -3.554000000     0.052000000
O     2.225000000    -5.140000000     3.191000000
H     1.477000000    -5.201000000     3.784000000
H     2.939000000    -5.571000000     3.661000000
O    -3.171000000    -1.783000000    -4.882000000
H    -3.799000000    -2.105000000    -5.528000000
H    -3.216000000    -0.830000000    -4.957000000
O    -3.861000000    -1.302000000    -0.681000000
H    -3.073000000    -1.159000000    -0.157000000
H    -4.351000000    -0.483000000    -0.605000000
O    -4.481000000     4.817000000     3.392000000
H    -4.933000000     5.376000000     4.024000000
H    -5.017000000     4.868000000     2.600000000
O     3.465000000     3.815000000     2.478000000
H     4.104000000     4.466000000     2.191000000
H     2.814000000     4.318000000     2.968000000
O     3.830000000     3.443000000    -2.750000000
H     3.631000000     3.993000000    -3.508000000
H     3.232000000     3.751000000    -2.068000000
O     1.217000000     4.182000000     4.111000000
H     1.017000000     4.301000000     5.039000000
H     0.374000000     3.969000000     3.710000000
O    -0.627000000     7.192000000     4.155000000
H    -1.014000000     6.337000000     3.965000000
H    -1.191000000     7.817000000     3.699000000
O     1.969000000    -5.802000000    -3.341000000
H     1.851000000    -5.591000000    -4.267000000
H     2.837000000    -5.461000000    -3.126000000
O    -3.980000000    -3.348000000     1.254000000
H    -4.651000000    -3.079000000     1.882000000
H    -3.948000000    -2.634000000     0.617000000
O     2.900000000    -0.517000000    -4.593000000
H     3.234000000    -0.598000000    -3.700000000
H     3.618000000    -0.116000000    -5.082000000
O    -2.305000000    -2.437000000     3.711000000
H    -2.172000000    -3.270000000     3.259000000
H    -3.251000000    -2.294000000     3.677000000
O    -2.596000000     1.083000000    -5.068000000
H    -2.300000000     1.507000000    -5.873000000
H    -1.950000000     1.340000000    -4.410000000
O    -4.472000000     2.665000000    -1.871000000
H    -3.796000000     2.143000000    -2.302000000
H    -4.103000000     2.872000000    -1.012000000
O    -0.568000000    -6.322000000    -1.854000000
H    -0.681000000    -6.023000000    -0.952000000
H     0.251000000    -5.917000000    -2.140000000
O     4.468000000    -2.206000000     0.281000000
H     4.043000000    -3.063000000     0.305000000
H     3.924000000    -1.653000000     0.843000000
O    -1.496000000     1.315000000    -2.650000000
H    -1.285000000     2.097000000    -2.140000000
H    -0.891000000     0.648000000    -2.327000000
O    -3.198000000     5.754000000     0.220000000
H    -2.807000000     5.865000000    -0.647000000
H    -3.288000000     4.806000000     0.322000000
O    -1.017000000    -0.554000000     5.223000000
H    -1.091000000    -1.331000000     4.670000000
H    -1.352000000    -0.833000000     6.075000000
O     0.333000000     5.098000000     6.706000000
H     0.381000000     5.987000000     7.058000000
H    -0.567000000     5.013000000     6.390000000
O    -2.577000000     4.559000000     6.554000000
H    -2.426000000     3.847000000     5.933000000
H    -3.478000000     4.836000000     6.386000000
O     2.856000000    -0.502000000     1.967000000
H     2.041000000    -0.187000000     2.357000000
H     3.193000000     0.248000000     1.476000000
O    -1.856000000     5.028000000     3.625000000
H    -1.636000000     4.280000000     3.070000000
H    -2.808000000     5.101000000     3.562000000
O    -0.342000000     6.444000000     1.048000000
H    -0.036000000     5.546000000     1.181000000
H    -1.294000000     6.366000000     0.990000000
O    -1.813000000     6.237000000    -2.110000000
H    -1.920000000     6.883000000    -2.808000000
H    -1.105000000     6.584000000    -1.568000000
O    -3.231000000     2.997000000     0.512000000
H    -3.900000000     2.568000000     1.045000000
H    -2.501000000     3.141000000     1.114000000
O    -0.847000000     3.724000000    -1.818000000
H    -1.249000000     4.576000000    -1.993000000
H    -0.484000000     3.807000000    -0.937000000
O     0.208000000     3.952000000    -4.753000000
H    -0.282000000     3.900000000    -3.932000000
H     1.014000000     4.415000000    -4.523000000
O    -4.888000000     2.241000000     5.255000000
H    -4.018000000     1.871000000     5.110000000
H    -4.894000000     3.049000000     4.743000000
O     5.554000000     1.879000000    -1.842000000
H     5.075000000     2.471000000    -2.421000000
H     5.014000000     1.828000000    -1.053000000
O     5.346000000    -4.378000000    -1.788000000
H     6.054000000    -3.737000000    -1.715000000
H     4.603000000    -3.965000000    -1.348000000
O     4.258000000    -0.488000000    -2.340000000
H     3.965000000    -0.657000000    -1.444000000
H     4.634000000     0.391000000    -2.307000000
