161
-3027.61610
C     0.654000000     1.207000000    -0.651000000
H     1.181000000     1.996000000    -1.182000000
C     0.520000000    -0.128000000    -1.144000000
H     1.046000000    -0.393000000    -2.058000000
C    -0.082000000    -1.172000000    -0.416000000
C    -0.050000000    -2.598000000    -0.959000000
H     0.134000000    -3.414000000    -0.257000000
H    -0.995000000    -2.768000000    -1.478000000
H     0.725000000    -2.662000000    -1.726000000
C    -0.708000000    -0.811000000     0.767000000
H    -1.178000000    -1.584000000     1.371000000
C    -0.588000000     0.496000000     1.254000000
H    -0.914000000     0.667000000     2.276000000
C    -0.036000000     1.484000000     0.550000000
C     0.002000000     2.878000000     1.063000000
O    -0.467000000     3.191000000     2.127000000
O     0.760000000     3.610000000     0.462000000
O    -4.049000000    -2.857000000    -1.647000000
H    -3.382000000    -2.449000000    -2.199000000
H    -4.346000000    -2.153000000    -1.070000000
O    -5.154000000    -2.934000000    -4.564000000
H    -4.954000000    -2.387000000    -5.324000000
H    -4.456000000    -2.739000000    -3.939000000
O    -0.801000000     2.017000000     4.546000000
H    -0.674000000     2.396000000     3.676000000
H    -0.083000000     1.392000000     4.642000000
O     3.040000000     3.655000000    -0.641000000
H     2.265000000     3.577000000    -0.085000000
H     3.453000000     4.472000000    -0.363000000
O    -0.044000000     5.354000000     3.789000000
H    -0.070000000     5.123000000     4.717000000
H    -0.151000000     4.520000000     3.332000000
O    -1.585000000     7.922000000    -1.127000000
H    -1.022000000     8.695000000    -1.178000000
H    -0.977000000     7.187000000    -1.048000000
O     1.929000000    -1.962000000     1.838000000
H     1.238000000    -1.633000000     1.263000000
H     2.299000000    -2.708000000     1.366000000
O     1.500000000     4.166000000    -2.889000000
H     2.103000000     4.782000000    -3.306000000
H     2.028000000     3.728000000    -2.222000000
O    -0.200000000    -0.173000000    -4.775000000
H     0.455000000     0.523000000    -4.815000000
H    -0.983000000     0.212000000    -5.171000000
O     3.736000000    -5.287000000    -3.010000000
H     3.522000000    -5.405000000    -3.936000000
H     4.144000000    -4.422000000    -2.967000000
O    -5.132000000     1.010000000     1.723000000
H    -4.666000000     0.709000000     2.503000000
H    -6.052000000     0.820000000     1.906000000
O    -3.309000000     1.482000000     3.552000000
H    -3.467000000     1.795000000     2.661000000
H    -2.451000000     1.838000000     3.782000000
O    -2.242000000    -1.167000000    -3.341000000
H    -1.341000000    -1.352000000    -3.604000000
H    -2.531000000    -0.480000000    -3.943000000
O     0.206000000     5.810000000    -0.883000000
H     0.376000000     5.444000000    -1.752000000
H     0.500000000     5.131000000    -0.276000000
O    -4.019000000     4.077000000    -1.600000000
H    -4.002000000     4.079000000    -0.643000000
H    -3.287000000     3.514000000    -1.852000000
O    -1.886000000    -6.924000000     1.171000000
H    -1.181000000    -6.682000000     0.570000000
H    -1.481000000    -6.899000000     2.038000000
O     0.232000000    -6.425000000    -0.567000000
H     0.977000000    -5.946000000    -0.204000000
H     0.157000000    -6.106000000    -1.466000000
O    -2.125000000     4.000000000    -4.363000000
H    -3.049000000     3.925000000    -4.601000000
H    -2.005000000     3.359000000    -3.662000000
O     2.742000000    -1.723000000     4.443000000
H     3.605000000    -1.421000000     4.162000000
H     2.269000000    -1.890000000     3.628000000
O     5.861000000     3.555000000    -1.812000000
H     5.287000000     3.702000000    -1.060000000
H     6.657000000     4.045000000    -1.605000000
O     5.009000000     1.065000000    -0.323000000
H     4.384000000     1.745000000    -0.574000000
H     5.339000000     0.724000000    -1.154000000
O     2.362000000     5.140000000     2.090000000
H     1.752000000     5.600000000     2.666000000
H     1.802000000     4.601000000     1.531000000
O     0.900000000     8.376000000     0.008000000
H     0.964000000     7.461000000    -0.263000000
H     0.610000000     8.336000000     0.920000000
O     0.373000000    -2.925000000    -4.779000000
H     0.253000000    -1.979000000    -4.856000000
H     0.096000000    -3.272000000    -5.627000000
O     0.358000000     2.938000000    -5.095000000
H    -0.562000000     3.159000000    -5.236000000
H     0.567000000     3.316000000    -4.241000000
O    -5.040000000    -3.556000000     3.711000000
H    -4.937000000    -3.838000000     2.802000000
H    -5.924000000    -3.189000000     3.749000000
O     0.839000000    -4.896000000    -2.840000000
H     1.763000000    -4.787000000    -2.612000000
H     0.649000000    -4.162000000    -3.425000000
O    -2.012000000     2.361000000    -2.141000000
H    -1.409000000     2.490000000    -1.409000000
H    -2.397000000     1.499000000    -1.985000000
O    -5.391000000     0.125000000    -0.820000000
H    -5.262000000     0.382000000     0.093000000
H    -5.522000000     0.951000000    -1.286000000
O    -2.520000000     3.252000000     6.751000000
H    -1.920000000     3.994000000     6.836000000
H    -2.416000000     2.964000000     5.844000000
O     2.687000000    -4.697000000    -5.827000000
H     2.124000000    -4.467000000    -6.566000000
H     3.108000000    -3.873000000    -5.580000000
O     0.929000000    -0.163000000     5.811000000
H     0.106000000    -0.638000000     5.689000000
H     1.554000000    -0.619000000     5.247000000
O     0.083000000     8.186000000     2.871000000
H     0.676000000     8.653000000     3.460000000
H     0.214000000     7.262000000     3.083000000
O     3.352000000     2.692000000     3.917000000
H     3.440000000     1.775000000     3.657000000
H     2.711000000     3.054000000     3.306000000
O    -2.254000000    -4.071000000    -5.441000000
H    -2.333000000    -4.325000000    -4.521000000
H    -1.614000000    -4.684000000    -5.804000000
O    -2.948000000     5.473000000     5.038000000
H    -2.053000000     5.500000000     4.702000000
H    -3.495000000     5.678000000     4.279000000
O     3.123000000     2.534000000    -5.928000000
H     3.864000000     2.888000000    -6.420000000
H     2.929000000     3.204000000    -5.272000000
O    -3.587000000     3.851000000     1.327000000
H    -4.264000000     4.116000000     1.949000000
H    -2.772000000     4.181000000     1.705000000
O    -2.852000000    -5.365000000    -1.180000000
H    -3.134000000    -4.453000000    -1.260000000
H    -2.711000000    -5.490000000    -0.241000000
O    -0.887000000    -4.383000000     4.291000000
H    -1.401000000    -5.123000000     3.967000000
H    -0.129000000    -4.786000000     4.715000000
O     3.420000000     0.609000000     1.894000000
H     3.940000000     0.676000000     1.093000000
H     3.018000000    -0.259000000     1.847000000
O     5.148000000     4.767000000     0.894000000
H     4.389000000     4.920000000     1.457000000
H     5.624000000     5.597000000     0.902000000
O     0.081000000     4.318000000     6.305000000
H     0.454000000     4.922000000     6.946000000
H     0.502000000     3.479000000     6.493000000
O    -4.813000000     0.604000000     5.896000000
H    -5.570000000     0.347000000     5.369000000
H    -4.118000000     0.759000000     5.256000000
O     2.539000000    -5.338000000     0.081000000
H     3.259000000    -4.973000000    -0.434000000
H     2.961000000    -5.684000000     0.868000000
O    -1.086000000    -1.838000000     5.222000000
H    -0.996000000    -2.657000000     4.735000000
H    -1.938000000    -1.493000000     4.956000000
O     5.147000000    -3.045000000    -2.684000000
H     4.904000000    -2.126000000    -2.573000000
H     5.816000000    -3.035000000    -3.368000000
O    -1.429000000    -6.150000000    -3.293000000
H    -1.912000000    -5.883000000    -2.510000000
H    -0.559000000    -5.767000000    -3.179000000
