161
-3041.23881
C     1.181000000     0.953000000     0.042000000
H     2.113000000     1.510000000     0.079000000
C     1.174000000    -0.265000000    -0.651000000
H     2.033000000    -0.731000000    -1.126000000
C    -0.013000000    -1.017000000    -0.617000000
C    -0.055000000    -2.400000000    -1.230000000
H     0.935000000    -2.784000000    -1.482000000
H    -0.382000000    -3.062000000    -0.425000000
H    -0.747000000    -2.346000000    -2.073000000
C    -1.206000000    -0.496000000    -0.047000000
H    -2.088000000    -1.112000000    -0.207000000
C    -1.196000000     0.758000000     0.543000000
H    -2.147000000     1.095000000     0.948000000
C     0.016000000     1.436000000     0.680000000
C     0.093000000     2.536000000     1.561000000
O    -0.869000000     2.754000000     2.356000000
O     1.165000000     3.173000000     1.643000000
O     5.013000000    -2.306000000     0.616000000
H     5.417000000    -1.468000000     0.392000000
H     5.718000000    -2.946000000     0.519000000
O    -3.870000000    -1.076000000    -2.570000000
H    -3.391000000    -0.464000000    -3.129000000
H    -4.253000000    -0.527000000    -1.887000000
O    -5.366000000    -3.358000000    -4.506000000
H    -6.000000000    -2.649000000    -4.620000000
H    -4.961000000    -3.181000000    -3.657000000
O    -1.922000000     1.145000000     4.020000000
H    -1.620000000     1.497000000     3.182000000
H    -1.360000000     0.386000000     4.176000000
O     3.044000000     2.183000000     3.307000000
H     2.294000000     2.442000000     2.771000000
H     3.251000000     2.964000000     3.821000000
O    -1.005000000     4.453000000     4.238000000
H    -0.223000000     4.242000000     4.747000000
H    -1.010000000     3.812000000     3.528000000
O    -4.845000000     3.840000000     2.016000000
H    -4.014000000     4.169000000     1.673000000
H    -4.732000000     3.849000000     2.967000000
O    -0.195000000    -1.229000000     3.090000000
H     0.055000000    -1.167000000     2.168000000
H    -1.133000000    -1.417000000     3.072000000
O    -4.049000000     6.663000000     0.149000000
H    -3.619000000     6.760000000    -0.700000000
H    -3.633000000     5.895000000     0.542000000
O     2.054000000     4.059000000    -2.953000000
H     2.516000000     4.879000000    -3.129000000
H     1.404000000     4.288000000    -2.289000000
O    -6.664000000     0.602000000     3.439000000
H    -5.839000000     0.196000000     3.172000000
H    -6.516000000     0.874000000     4.344000000
O     5.001000000    -4.794000000    -3.061000000
H     4.788000000    -3.862000000    -3.028000000
H     5.209000000    -4.960000000    -3.981000000
O    -5.428000000    -1.208000000     0.275000000
H    -4.865000000    -0.941000000     1.002000000
H    -5.928000000    -1.949000000     0.618000000
O    -1.754000000    -6.098000000    -5.393000000
H    -1.010000000    -6.649000000    -5.639000000
H    -1.591000000    -5.872000000    -4.477000000
O    -4.162000000    -0.203000000     2.654000000
H    -3.793000000    -1.087000000     2.674000000
H    -3.447000000     0.361000000     2.948000000
O    -1.217000000    -0.270000000    -4.537000000
H    -1.533000000    -1.143000000    -4.306000000
H    -1.356000000    -0.207000000    -5.482000000
O     0.344000000     4.876000000    -0.554000000
H     0.737000000     5.748000000    -0.502000000
H     0.779000000     4.376000000     0.137000000
O    -1.817000000     3.723000000    -1.282000000
H    -1.019000000     4.186000000    -1.026000000
H    -1.536000000     3.133000000    -1.982000000
O     0.215000000    -5.192000000     1.624000000
H     1.030000000    -4.708000000     1.491000000
H     0.429000000    -6.092000000     1.380000000
O     5.350000000     4.216000000    -1.841000000
H     4.812000000     4.590000000    -2.539000000
H     5.953000000     3.626000000    -2.293000000
O     4.702000000     0.665000000     1.979000000
H     4.018000000     1.153000000     2.436000000
H     4.327000000     0.474000000     1.120000000
O     2.426000000     5.668000000     1.334000000
H     1.779000000     6.207000000     1.789000000
H     2.137000000     4.768000000     1.486000000
O     1.903000000     7.111000000    -1.274000000
H     2.278000000     6.639000000    -0.530000000
H     2.542000000     6.995000000    -1.977000000
O     0.330000000    -3.008000000    -6.111000000
H     0.302000000    -2.083000000    -6.357000000
H    -0.441000000    -3.132000000    -5.558000000
O    -2.613000000    -2.453000000     2.799000000
H    -2.559000000    -2.992000000     3.587000000
H    -2.834000000    -3.070000000     2.101000000
O     0.229000000    -6.470000000    -1.217000000
H     1.081000000    -6.144000000    -0.928000000
H     0.157000000    -7.337000000    -0.817000000
O    -4.100000000     2.357000000    -0.633000000
H    -3.563000000     3.024000000    -1.061000000
H    -4.406000000     2.777000000     0.172000000
O    -1.169000000     1.712000000    -2.946000000
H    -0.890000000     1.211000000    -2.180000000
H    -1.351000000     1.050000000    -3.613000000
O     0.598000000    -6.825000000    -3.883000000
H     1.208000000    -7.007000000    -3.167000000
H     0.584000000    -5.870000000    -3.949000000
O    -5.889000000     0.674000000    -1.609000000
H    -5.866000000     0.069000000    -0.868000000
H    -5.279000000     1.371000000    -1.369000000
O    -3.177000000     2.986000000     5.576000000
H    -2.332000000     3.435000000     5.573000000
H    -3.083000000     2.294000000     4.922000000
O     1.913000000    -4.268000000    -4.101000000
H     2.344000000    -3.510000000    -3.705000000
H     1.849000000    -4.048000000    -5.031000000
O     0.134000000     7.011000000     3.657000000
H    -0.039000000     7.348000000     4.536000000
H    -0.492000000     6.295000000     3.548000000
O     3.784000000     5.955000000     3.848000000
H     4.589000000     5.588000000     4.214000000
H     3.769000000     5.644000000     2.943000000
O    -2.385000000    -2.693000000    -5.202000000
H    -2.770000000    -2.794000000    -6.072000000
H    -2.639000000    -3.489000000    -4.735000000
O     2.762000000     0.370000000    -6.093000000
H     3.631000000    -0.006000000    -6.232000000
H     2.749000000     0.607000000    -5.165000000
O     2.971000000     0.897000000    -3.472000000
H     2.947000000     1.847000000    -3.592000000
H     2.435000000     0.741000000    -2.694000000
O    -2.607000000     4.439000000     1.072000000
H    -2.128000000     3.743000000     1.523000000
H    -2.306000000     4.386000000     0.165000000
O    -3.823000000    -3.434000000    -1.283000000
H    -3.671000000    -2.562000000    -1.646000000
H    -4.698000000    -3.385000000    -0.899000000
O    -2.821000000    -4.592000000     1.064000000
H    -3.039000000    -4.314000000     0.174000000
H    -2.042000000    -5.139000000     0.961000000
O     3.258000000    -7.357000000    -2.363000000
H     3.905000000    -7.682000000    -2.989000000
H     3.239000000    -6.411000000    -2.508000000
O     2.423000000    -1.196000000     3.774000000
H     2.353000000    -0.257000000     3.945000000
H     1.516000000    -1.493000000     3.699000000
O     4.866000000     4.923000000     0.620000000
H     3.931000000     5.114000000     0.682000000
H     4.996000000     4.656000000    -0.290000000
O     0.347000000     3.587000000     6.389000000
H     1.282000000     3.748000000     6.519000000
H     0.187000000     2.747000000     6.818000000
O     2.724000000    -4.034000000     1.229000000
H     3.220000000    -3.220000000     1.142000000
H     3.266000000    -4.586000000     1.791000000
O     0.491000000    -3.825000000     4.735000000
H     0.070000000    -3.251000000     4.096000000
H    -0.097000000    -4.577000000     4.806000000
O     3.666000000    -1.810000000    -3.523000000
H     3.307000000    -0.967000000    -3.800000000
H     4.489000000    -1.588000000    -3.088000000
O    -1.552000000    -5.099000000    -2.949000000
H    -2.122000000    -4.538000000    -2.423000000
H    -0.845000000    -5.347000000    -2.354000000
