161
-3034.30473
C     0.351000000     1.336000000    -0.604000000
H     0.701000000     2.266000000    -1.044000000
C     0.856000000     0.047000000    -0.993000000
H     1.621000000    -0.023000000    -1.762000000
C     0.421000000    -1.092000000    -0.304000000
C     0.859000000    -2.451000000    -0.920000000
H     0.133000000    -3.217000000    -0.639000000
H     0.961000000    -2.380000000    -2.005000000
H     1.869000000    -2.694000000    -0.583000000
C    -0.518000000    -1.036000000     0.706000000
H    -0.822000000    -1.928000000     1.248000000
C    -1.021000000     0.198000000     1.137000000
H    -1.751000000     0.225000000     1.943000000
C    -0.552000000     1.390000000     0.483000000
C    -0.907000000     2.782000000     0.992000000
O    -1.577000000     2.868000000     2.016000000
O    -0.618000000     3.710000000     0.323000000
O    -4.995000000    -1.959000000     1.605000000
H    -4.711000000    -1.729000000     0.721000000
H    -4.828000000    -2.899000000     1.674000000
O    -6.269000000     2.331000000     1.766000000
H    -6.731000000     2.895000000     2.386000000
H    -5.343000000     2.524000000     1.909000000
O     0.771000000     3.930000000     3.100000000
H     0.740000000     4.873000000     3.264000000
H    -0.113000000     3.709000000     2.808000000
O     2.273000000     5.009000000     0.160000000
H     2.777000000     4.287000000    -0.215000000
H     1.439000000     4.612000000     0.413000000
O    -0.239000000    -3.687000000    -4.750000000
H    -0.969000000    -3.139000000    -5.038000000
H    -0.144000000    -4.342000000    -5.441000000
O    -6.119000000     3.479000000     4.512000000
H    -5.322000000     3.123000000     4.120000000
H    -6.296000000     4.276000000     4.014000000
O     5.819000000    -4.125000000    -2.809000000
H     5.367000000    -3.389000000    -2.394000000
H     6.325000000    -4.524000000    -2.102000000
O    -0.769000000    -3.674000000     4.316000000
H    -1.360000000    -3.524000000     5.053000000
H    -0.144000000    -2.950000000     4.358000000
O     3.699000000    -4.098000000     0.235000000
H     4.526000000    -4.150000000     0.714000000
H     3.090000000    -4.629000000     0.750000000
O     0.002000000     5.014000000    -1.890000000
H    -0.102000000     4.497000000    -1.092000000
H     0.703000000     5.632000000    -1.686000000
O     0.990000000     1.370000000    -5.671000000
H     1.085000000     1.722000000    -4.786000000
H     0.944000000     0.422000000    -5.549000000
O    -1.854000000    -2.903000000    -2.346000000
H    -1.538000000    -2.000000000    -2.318000000
H    -1.494000000    -3.257000000    -3.159000000
O    -1.954000000    -0.200000000    -2.462000000
H    -2.414000000     0.197000000    -3.201000000
H    -1.501000000     0.531000000    -2.042000000
O     0.832000000     7.023000000     2.872000000
H    -0.062000000     7.155000000     2.556000000
H     0.969000000     7.728000000     3.504000000
O    -2.680000000     5.302000000     1.114000000
H    -1.994000000     4.653000000     1.270000000
H    -2.365000000     5.810000000     0.367000000
O     3.557000000     2.912000000    -0.945000000
H     3.920000000     2.038000000    -1.085000000
H     3.751000000     3.385000000    -1.754000000
O     1.599000000    -5.611000000    -3.083000000
H     1.013000000    -4.913000000    -3.376000000
H     1.026000000    -6.228000000    -2.628000000
O     4.395000000    -6.035000000    -3.785000000
H     4.904000000    -5.490000000    -3.185000000
H     3.482000000    -5.837000000    -3.572000000
O    -2.364000000     0.050000000     6.004000000
H    -1.603000000    -0.528000000     6.048000000
H    -3.090000000    -0.484000000     6.327000000
O     4.111000000    -2.151000000    -1.608000000
H     3.787000000    -1.476000000    -1.012000000
H     4.290000000    -2.903000000    -1.043000000
O    -4.375000000    -0.717000000    -0.922000000
H    -3.470000000    -0.555000000    -1.189000000
H    -4.645000000     0.091000000    -0.486000000
O     1.867000000    -1.706000000     4.031000000
H     1.833000000    -1.111000000     3.282000000
H     2.764000000    -2.040000000     4.031000000
O    -1.712000000    -4.962000000     1.803000000
H    -0.957000000    -5.198000000     1.264000000
H    -1.334000000    -4.700000000     2.643000000
O     2.401000000    -1.951000000    -4.079000000
H     2.817000000    -2.486000000    -3.403000000
H     1.469000000    -2.158000000    -4.008000000
O    -0.403000000    -7.409000000    -2.145000000
H    -0.419000000    -8.244000000    -2.612000000
H    -1.313000000    -7.262000000    -1.885000000
O     2.624000000    -4.435000000    -6.335000000
H     3.086000000    -3.643000000    -6.063000000
H     1.930000000    -4.543000000    -5.684000000
O    -3.898000000     2.880000000     3.027000000
H    -3.915000000     1.952000000     3.261000000
H    -2.996000000     3.040000000     2.750000000
O    -3.038000000    -4.653000000    -0.802000000
H    -2.581000000    -4.089000000    -1.426000000
H    -2.737000000    -4.353000000     0.056000000
O     4.073000000    -0.669000000     0.804000000
H     3.203000000    -0.418000000     1.117000000
H     4.575000000     0.146000000     0.814000000
O     6.098000000    -2.573000000     1.594000000
H     5.405000000    -1.932000000     1.436000000
H     5.876000000    -2.961000000     2.441000000
O     1.754000000     1.615000000     5.333000000
H     0.923000000     1.541000000     5.801000000
H     1.541000000     2.114000000     4.544000000
O     4.940000000     2.229000000    -4.633000000
H     4.897000000     1.676000000    -3.853000000
H     4.988000000     1.611000000    -5.363000000
O    -2.270000000     5.883000000     3.747000000
H    -2.528000000     4.962000000     3.716000000
H    -2.198000000     6.142000000     2.828000000
O     3.097000000     2.992000000     2.708000000
H     2.263000000     3.460000000     2.733000000
H     3.746000000     3.669000000     2.515000000
O    -3.757000000     3.369000000    -0.938000000
H    -3.329000000     4.087000000    -0.473000000
H    -3.036000000     2.822000000    -1.251000000
O     0.010000000     5.419000000    -4.693000000
H     0.066000000     5.111000000    -3.788000000
H    -0.884000000     5.207000000    -4.963000000
O    -3.897000000     0.164000000     3.632000000
H    -3.180000000    -0.107000000     4.205000000
H    -4.111000000    -0.620000000     3.128000000
O     1.766000000     3.159000000    -3.521000000
H     1.529000000     4.071000000    -3.353000000
H     2.578000000     3.211000000    -4.025000000
O     5.376000000     1.671000000     0.833000000
H     4.741000000     2.362000000     0.644000000
H     5.318000000     1.544000000     1.780000000
O    -5.050000000     6.853000000     0.616000000
H    -4.356000000     6.377000000     1.072000000
H    -5.348000000     6.249000000    -0.064000000
O     0.318000000    -6.251000000     0.466000000
H     0.962000000    -6.798000000     0.917000000
H     0.550000000    -6.323000000    -0.460000000
O     4.523000000     0.375000000    -2.771000000
H     5.107000000    -0.244000000    -2.332000000
H     3.894000000    -0.178000000    -3.235000000
O    -2.395000000     6.942000000    -1.261000000
H    -1.659000000     6.692000000    -1.820000000
H    -2.252000000     7.871000000    -1.080000000
O    -1.618000000     2.710000000    -2.671000000
H    -0.763000000     2.938000000    -2.305000000
H    -1.621000000     3.110000000    -3.540000000
O    -4.399000000    -4.659000000     2.094000000
H    -3.448000000    -4.594000000     2.184000000
H    -4.622000000    -5.494000000     2.506000000
O     3.960000000    -6.901000000    -0.954000000
H     3.398000000    -7.349000000    -1.587000000
H     3.488000000    -6.970000000    -0.124000000
O     2.735000000    -4.821000000     2.752000000
H     2.133000000    -4.202000000     3.165000000
H     2.516000000    -5.666000000     3.144000000
O     1.960000000     0.466000000     2.195000000
H     2.410000000     1.266000000     2.466000000
H     1.338000000     0.755000000     1.527000000
