161
-3048.30079
C     0.538000000     1.210000000    -0.772000000
H     0.954000000     1.901000000    -1.501000000
C     0.992000000    -0.135000000    -0.860000000
H     1.769000000    -0.418000000    -1.565000000
C     0.429000000    -1.111000000    -0.050000000
C     0.794000000    -2.597000000    -0.249000000
H     0.005000000    -3.319000000    -0.468000000
H     1.440000000    -2.690000000    -1.124000000
H     1.405000000    -2.840000000     0.624000000
C    -0.563000000    -0.812000000     0.847000000
H    -1.020000000    -1.517000000     1.536000000
C    -1.025000000     0.474000000     0.982000000
H    -1.748000000     0.707000000     1.760000000
C    -0.479000000     1.495000000     0.128000000
C    -1.003000000     2.880000000     0.218000000
O    -2.043000000     3.045000000     0.859000000
O    -0.444000000     3.725000000    -0.361000000
O    -4.064000000    -2.811000000     0.863000000
H    -3.724000000    -2.058000000     0.379000000
H    -3.888000000    -2.605000000     1.781000000
O    -7.057000000     3.064000000     0.952000000
H    -7.500000000     2.243000000     0.737000000
H    -6.161000000     2.942000000     0.638000000
O     1.902000000     0.860000000     2.036000000
H     1.518000000     0.841000000     1.159000000
H     1.219000000     1.239000000     2.589000000
O     1.718000000     4.858000000     1.027000000
H     2.186000000     5.264000000     0.297000000
H     0.994000000     4.386000000     0.615000000
O    -1.334000000     4.516000000     5.247000000
H    -1.137000000     5.328000000     4.779000000
H    -1.717000000     3.944000000     4.582000000
O    -4.512000000     5.282000000     1.211000000
H    -3.719000000     5.608000000     1.636000000
H    -4.354000000     4.345000000     1.095000000
O     5.000000000    -2.610000000    -5.215000000
H     4.845000000    -2.552000000    -4.272000000
H     4.808000000    -1.732000000    -5.544000000
O    -2.725000000     2.676000000     3.643000000
H    -3.681000000     2.628000000     3.656000000
H    -2.498000000     2.681000000     2.713000000
O     1.164000000    -5.463000000     1.766000000
H     0.914000000    -5.613000000     0.855000000
H     0.594000000    -6.045000000     2.270000000
O    -4.218000000    -5.251000000    -1.188000000
H    -4.680000000    -4.771000000    -1.875000000
H    -4.101000000    -4.610000000    -0.486000000
O    -2.152000000     0.303000000     5.323000000
H    -3.045000000     0.322000000     4.979000000
H    -1.671000000     0.921000000     4.773000000
O    -0.728000000     6.381000000    -0.396000000
H    -0.702000000     5.424000000    -0.400000000
H    -0.371000000     6.634000000    -1.247000000
O    -2.710000000     3.051000000    -4.935000000
H    -3.398000000     3.052000000    -4.269000000
H    -1.899000000     3.166000000    -4.440000000
O    -0.701000000    -3.711000000    -4.147000000
H    -1.344000000    -4.388000000    -4.353000000
H    -1.143000000    -2.888000000    -4.357000000
O    -5.226000000     3.009000000     3.415000000
H    -5.347000000     3.958000000     3.450000000
H    -5.796000000     2.721000000     2.702000000
O    -2.016000000     5.747000000     1.740000000
H    -1.543000000     6.184000000     1.032000000
H    -1.980000000     4.818000000     1.514000000
O     3.626000000     3.147000000    -2.500000000
H     2.996000000     2.772000000    -3.116000000
H     3.170000000     3.897000000    -2.119000000
O    -4.552000000     0.493000000     4.710000000
H    -4.811000000     1.335000000     4.337000000
H    -4.603000000     0.624000000     5.657000000
O    -4.325000000     0.009000000     0.077000000
H    -3.729000000     0.148000000    -0.659000000
H    -4.575000000     0.891000000     0.351000000
O     4.130000000     0.395000000     3.325000000
H     4.328000000     1.281000000     3.627000000
H     3.365000000     0.501000000     2.760000000
O     1.878000000    -4.489000000     4.296000000
H     1.511000000    -4.738000000     3.447000000
H     2.421000000    -3.723000000     4.106000000
O     3.988000000    -5.135000000    -1.863000000
H     3.124000000    -5.237000000    -2.264000000
H     4.178000000    -5.993000000    -1.484000000
O    -2.390000000    -7.434000000    -1.259000000
H    -2.446000000    -7.740000000    -2.164000000
H    -2.829000000    -6.583000000    -1.267000000
O    -2.278000000     0.050000000    -2.099000000
H    -2.091000000     0.068000000    -3.038000000
H    -1.425000000    -0.087000000    -1.687000000
O     0.512000000     1.938000000     4.006000000
H     0.175000000     2.820000000     4.166000000
H     0.909000000     1.679000000     4.837000000
O    -0.278000000     6.581000000     3.536000000
H     0.558000000     6.441000000     3.092000000
H    -0.939000000     6.410000000     2.865000000
O     4.537000000     1.889000000    -0.199000000
H     4.200000000     2.346000000    -0.969000000
H     4.075000000     2.287000000     0.538000000
O     3.697000000    -2.490000000     3.895000000
H     3.785000000    -1.600000000     3.554000000
H     4.170000000    -2.475000000     4.727000000
O     1.907000000     2.466000000    -4.488000000
H     2.196000000     3.134000000    -5.110000000
H     1.614000000     1.738000000    -5.037000000
O    -4.417000000     2.824000000    -0.128000000
H    -3.530000000     3.037000000     0.165000000
H    -4.361000000     2.831000000    -1.083000000
O     5.599000000    -2.852000000    -2.511000000
H     5.158000000    -3.674000000    -2.300000000
H     5.468000000    -2.304000000    -1.737000000
O     2.769000000     5.578000000    -1.380000000
H     3.162000000     6.451000000    -1.359000000
H     2.076000000     5.643000000    -2.038000000
O     3.680000000    -4.588000000     1.894000000
H     3.522000000    -3.681000000     2.159000000
H     2.813000000    -4.994000000     1.900000000
O     0.254000000    -7.018000000    -0.967000000
H    -0.675000000    -7.221000000    -1.075000000
H     0.509000000    -7.482000000    -0.170000000
O     1.275000000    -5.479000000    -3.098000000
H     0.624000000    -4.813000000    -3.318000000
H     0.896000000    -5.949000000    -2.356000000
O     0.704000000     7.157000000    -2.500000000
H     0.839000000     7.164000000    -3.448000000
H     0.572000000     8.077000000    -2.270000000
O    -4.719000000     6.674000000    -1.170000000
H    -5.508000000     6.195000000    -1.424000000
H    -4.450000000     6.272000000    -0.344000000
O    -1.457000000     8.774000000     0.726000000
H    -0.622000000     9.242000000     0.749000000
H    -1.309000000     8.049000000     0.120000000
O     1.593000000    -4.991000000    -5.838000000
H     1.020000000    -4.427000000    -5.319000000
H     1.971000000    -5.598000000    -5.201000000
O     1.685000000    -0.264000000    -5.453000000
H     2.108000000    -0.920000000    -6.006000000
H     2.312000000    -0.105000000    -4.747000000
O    -0.435000000     3.596000000    -3.396000000
H     0.470000000     3.370000000    -3.612000000
H    -0.380000000     4.010000000    -2.535000000
O     5.013000000    -0.861000000    -0.725000000
H     4.814000000     0.055000000    -0.533000000
H     5.309000000    -1.222000000     0.111000000
O    -5.646000000    -4.265000000     3.223000000
H    -4.845000000    -3.911000000     2.835000000
H    -5.432000000    -4.383000000     4.148000000
O    -0.796000000     0.399000000    -4.442000000
H    -0.795000000     1.356000000    -4.422000000
H    -0.169000000     0.173000000    -5.129000000
O     2.458000000     6.170000000     3.221000000
H     2.017000000     5.784000000     2.464000000
H     3.369000000     6.266000000     2.944000000
O     5.916000000    -5.971000000     0.906000000
H     6.477000000    -5.355000000     0.434000000
H     5.178000000    -5.440000000     1.207000000
O     4.299000000     0.108000000    -3.390000000
H     4.645000000    -0.272000000    -2.582000000
H     3.953000000     0.961000000    -3.124000000
O    -3.655000000    -2.104000000     3.545000000
H    -4.061000000    -1.446000000     4.109000000
H    -2.756000000    -2.174000000     3.867000000
