161
-3027.83876
C     1.214000000     0.867000000     0.131000000
H     2.154000000     1.413000000     0.109000000
C     1.107000000    -0.251000000    -0.653000000
H     1.959000000    -0.567000000    -1.249000000
C    -0.047000000    -1.010000000    -0.699000000
C    -0.165000000    -2.167000000    -1.646000000
H    -1.125000000    -2.669000000    -1.505000000
H    -0.272000000    -1.776000000    -2.660000000
H     0.645000000    -2.890000000    -1.532000000
C    -1.152000000    -0.584000000     0.035000000
H    -2.113000000    -1.093000000     0.055000000
C    -1.077000000     0.469000000     0.938000000
H    -1.881000000     0.879000000     1.544000000
C     0.154000000     1.161000000     0.994000000
C     0.198000000     2.426000000     1.825000000
O    -0.788000000     2.695000000     2.538000000
O     1.186000000     3.094000000     1.768000000
O    -5.636000000    -3.361000000     1.191000000
H    -5.410000000    -4.107000000     1.745000000
H    -4.912000000    -3.297000000     0.567000000
O     0.949000000    -4.596000000     2.633000000
H     0.370000000    -5.239000000     2.224000000
H     1.027000000    -3.897000000     1.984000000
O    -6.017000000     0.229000000     3.259000000
H    -6.553000000     0.995000000     3.465000000
H    -5.118000000     0.556000000     3.266000000
O    -1.774000000     5.215000000     4.139000000
H    -2.476000000     4.691000000     3.753000000
H    -1.405000000     4.654000000     4.822000000
O     3.443000000    -5.743000000     2.382000000
H     3.178000000    -5.325000000     1.563000000
H     2.709000000    -5.591000000     2.977000000
O     3.685000000     3.210000000     1.345000000
H     2.732000000     3.156000000     1.285000000
H     3.963000000     2.318000000     1.555000000
O    -3.066000000     4.244000000    -1.305000000
H    -2.289000000     3.844000000    -1.697000000
H    -3.001000000     4.033000000    -0.374000000
O    -2.559000000     0.854000000     4.085000000
H    -1.777000000     0.338000000     4.284000000
H    -2.224000000     1.641000000     3.656000000
O     3.924000000    -3.220000000    -2.702000000
H     4.050000000    -3.607000000    -3.568000000
H     4.251000000    -2.324000000    -2.790000000
O     0.138000000     2.664000000     5.181000000
H    -0.508000000     2.109000000     5.619000000
H    -0.228000000     2.817000000     4.310000000
O    -4.466000000    -5.606000000    -2.828000000
H    -4.876000000    -5.329000000    -3.647000000
H    -4.932000000    -6.406000000    -2.585000000
O    -1.497000000    -5.796000000    -3.598000000
H    -2.388000000    -5.972000000    -3.297000000
H    -1.589000000    -5.056000000    -4.199000000
O    -1.701000000    -5.391000000     2.024000000
H    -2.464000000    -5.954000000     1.895000000
H    -1.164000000    -5.533000000     1.244000000
O    -0.004000000    -3.305000000    -7.717000000
H     0.309000000    -3.521000000    -6.839000000
H    -0.836000000    -3.773000000    -7.797000000
O    -2.727000000     7.693000000     3.697000000
H    -2.308000000     6.877000000     3.971000000
H    -2.336000000     7.889000000     2.845000000
O     2.314000000     4.401000000     3.804000000
H     1.739000000     3.986000000     3.161000000
H     2.309000000     3.804000000     4.552000000
O     4.620000000     0.636000000     1.332000000
H     4.423000000    -0.193000000     0.894000000
H     4.044000000     0.646000000     2.096000000
O    -3.208000000     3.433000000     1.634000000
H    -3.686000000     3.726000000     2.409000000
H    -2.324000000     3.249000000     1.952000000
O     2.033000000     3.476000000    -2.636000000
H     2.970000000     3.397000000    -2.454000000
H     1.814000000     4.371000000    -2.380000000
O     4.978000000     2.245000000    -1.114000000
H     4.464000000     2.508000000    -0.351000000
H     5.888000000     2.306000000    -0.823000000
O     5.345000000     3.742000000    -3.308000000
H     5.483000000     4.643000000    -3.014000000
H     5.280000000     3.234000000    -2.499000000
O     0.070000000    -6.033000000    -0.208000000
H     0.119000000    -6.952000000    -0.471000000
H     0.574000000    -5.566000000    -0.875000000
O    -0.312000000    -1.033000000     3.743000000
H     0.294000000    -0.962000000     3.005000000
H    -0.799000000    -1.841000000     3.575000000
O     0.179000000     0.888000000    -5.759000000
H     0.890000000     0.258000000    -5.638000000
H    -0.136000000     0.725000000    -6.648000000
O     4.284000000    -1.615000000    -0.069000000
H     4.764000000    -1.326000000    -0.845000000
H     3.706000000    -2.307000000    -0.390000000
O    -3.028000000    -4.097000000    -5.933000000
H    -3.823000000    -4.496000000    -5.578000000
H    -3.237000000    -3.166000000    -6.002000000
O    -2.127000000    -3.071000000     3.190000000
H    -2.022000000    -3.951000000     2.830000000
H    -3.073000000    -2.924000000     3.192000000
O     4.643000000     5.547000000     2.383000000
H     3.885000000     6.025000000     2.046000000
H     4.356000000     4.635000000     2.416000000
O     1.094000000    -5.498000000    -2.755000000
H     1.457000000    -6.058000000    -3.441000000
H     0.154000000    -5.475000000    -2.938000000
O     2.806000000     0.727000000     3.377000000
H     3.481000000     1.124000000     3.928000000
H     2.586000000    -0.092000000     3.820000000
O     0.150000000     5.698000000     2.031000000
H    -0.301000000     5.870000000     2.858000000
H     0.050000000     4.755000000     1.896000000
O     5.570000000    -0.860000000    -2.781000000
H     6.181000000    -0.384000000    -2.219000000
H     6.130000000    -1.394000000    -3.345000000
O    -3.617000000    -3.896000000    -0.853000000
H    -2.671000000    -3.883000000    -0.997000000
H    -3.926000000    -4.649000000    -1.357000000
O     2.592000000     6.840000000     0.749000000
H     2.161000000     6.285000000     1.399000000
H     2.502000000     6.360000000    -0.074000000
O     1.053000000     6.650000000     4.680000000
H     1.654000000     6.851000000     5.398000000
H     1.520000000     6.004000000     4.150000000
O     2.039000000    -1.062000000    -4.919000000
H     2.819000000    -1.258000000    -5.440000000
H     2.310000000    -0.347000000    -4.343000000
O     2.950000000    -4.409000000    -0.222000000
H     3.809000000    -4.822000000    -0.311000000
H     2.715000000    -4.149000000    -1.113000000
O     2.494000000     2.442000000     6.468000000
H     1.839000000     2.382000000     5.773000000
H     2.263000000     1.740000000     7.076000000
O    -3.162000000     6.866000000     0.178000000
H    -3.168000000     5.911000000     0.252000000
H    -3.070000000     7.032000000    -0.760000000
O     0.535000000     5.187000000     7.381000000
H    -0.266000000     5.288000000     7.896000000
H     0.259000000     4.703000000     6.603000000
O     4.531000000    -3.120000000     2.532000000
H     3.887000000    -2.895000000     1.860000000
H     4.406000000    -4.058000000     2.678000000
O     3.308000000     0.660000000    -3.113000000
H     3.982000000    -0.009000000    -2.992000000
H     3.523000000     1.335000000    -2.470000000
O    -4.305000000     4.002000000     4.078000000
H    -5.190000000     3.944000000     3.717000000
H    -4.321000000     3.427000000     4.843000000
O    -0.776000000     2.937000000    -2.485000000
H    -0.474000000     2.637000000    -1.628000000
H     0.013000000     2.949000000    -3.026000000
O    -5.217000000    -1.963000000    -2.963000000
H    -5.044000000    -1.021000000    -2.976000000
H    -4.506000000    -2.330000000    -2.438000000
O     0.996000000    -3.655000000    -5.022000000
H     1.028000000    -4.173000000    -4.218000000
H     1.221000000    -2.767000000    -4.743000000
O     1.945000000    -1.668000000     1.749000000
H     2.303000000    -0.927000000     2.238000000
H     1.773000000    -1.319000000     0.875000000
O    -2.376000000     1.499000000    -4.571000000
H    -1.773000000     1.219000000    -5.260000000
H    -1.809000000     1.851000000    -3.884000000
