161
-3010.16015
C     1.213000000     0.558000000     0.414000000
H     2.203000000     0.937000000     0.650000000
C     1.123000000    -0.236000000    -0.691000000
H     2.008000000    -0.495000000    -1.266000000
C    -0.147000000    -0.775000000    -0.962000000
C    -0.343000000    -1.464000000    -2.248000000
H    -0.235000000    -2.534000000    -2.057000000
H    -1.312000000    -1.190000000    -2.670000000
H     0.488000000    -1.231000000    -2.917000000
C    -1.234000000    -0.476000000    -0.142000000
H    -2.259000000    -0.719000000    -0.410000000
C    -1.066000000     0.300000000     1.015000000
H    -1.968000000     0.484000000     1.594000000
C     0.180000000     0.870000000     1.241000000
C     0.414000000     1.731000000     2.525000000
O    -0.555000000     1.970000000     3.203000000
O     1.494000000     2.268000000     2.723000000
O     2.810000000    -2.183000000     1.810000000
H     3.267000000    -2.059000000     0.978000000
H     3.295000000    -1.640000000     2.433000000
O    -4.411000000     2.044000000     4.914000000
H    -3.893000000     1.242000000     4.986000000
H    -3.898000000     2.610000000     4.339000000
O    -1.550000000     4.498000000     6.490000000
H    -2.378000000     4.950000000     6.329000000
H    -1.179000000     4.361000000     5.619000000
O     0.017000000    -2.049000000     3.411000000
H     0.601000000    -2.564000000     2.855000000
H    -0.021000000    -1.191000000     2.989000000
O     4.428000000     1.988000000     2.300000000
H     3.489000000     1.844000000     2.416000000
H     4.839000000     1.218000000     2.694000000
O    -4.588000000     2.172000000    -1.801000000
H    -3.802000000     2.646000000    -2.071000000
H    -4.724000000     2.433000000    -0.890000000
O    -1.782000000     1.232000000     5.294000000
H    -1.309000000     1.621000000     6.029000000
H    -1.268000000     1.474000000     4.523000000
O    -2.660000000    -5.924000000    -4.128000000
H    -2.475000000    -5.780000000    -5.056000000
H    -3.066000000    -5.109000000    -3.835000000
O     2.491000000    -0.760000000    -6.181000000
H     2.617000000    -0.941000000    -5.250000000
H     2.411000000     0.193000000    -6.231000000
O    -5.402000000     0.436000000     0.480000000
H    -5.093000000     0.031000000     1.290000000
H    -5.379000000     1.377000000     0.658000000
O     1.658000000     2.999000000     5.346000000
H     2.363000000     2.471000000     5.721000000
H     1.498000000     2.608000000     4.487000000
O    -1.292000000    -6.941000000    -0.945000000
H    -1.739000000    -7.464000000    -1.611000000
H    -0.809000000    -7.581000000    -0.422000000
O     0.713000000    -6.607000000    -4.231000000
H     1.109000000    -7.067000000    -3.491000000
H    -0.222000000    -6.581000000    -4.024000000
O    -4.058000000     0.769000000    -5.416000000
H    -3.599000000     1.599000000    -5.291000000
H    -4.918000000     0.909000000    -5.022000000
O     5.706000000     3.415000000     0.308000000
H     5.300000000     2.894000000     1.000000000
H     5.123000000     4.167000000     0.201000000
O    -4.900000000     3.286000000     0.944000000
H    -4.146000000     3.110000000     1.507000000
H    -5.300000000     4.071000000     1.319000000
O    -6.026000000    -1.789000000    -4.832000000
H    -5.320000000    -2.423000000    -4.709000000
H    -6.582000000    -1.898000000    -4.061000000
O     1.886000000     6.137000000     5.794000000
H     2.401000000     6.472000000     6.528000000
H     2.038000000     5.192000000     5.806000000
O     4.778000000    -0.470000000     3.378000000
H     5.570000000    -1.003000000     3.300000000
H     4.513000000    -0.568000000     4.292000000
O    -2.855000000     3.011000000     2.660000000
H    -2.805000000     3.813000000     3.180000000
H    -2.015000000     2.577000000     2.809000000
O     3.788000000     5.517000000    -0.165000000
H     3.761000000     6.461000000    -0.323000000
H     2.892000000     5.291000000     0.086000000
O     0.051000000     1.222000000    -7.001000000
H     0.570000000     1.547000000    -6.265000000
H    -0.550000000     1.938000000    -7.206000000
O     0.049000000    -5.123000000     2.003000000
H     0.364000000    -4.903000000     1.126000000
H     0.581000000    -5.874000000     2.267000000
O     1.280000000    -1.130000000     6.094000000
H     1.910000000    -0.422000000     5.961000000
H     1.248000000    -1.584000000     5.252000000
O     3.275000000    -1.225000000    -3.731000000
H     4.215000000    -1.271000000    -3.556000000
H     2.905000000    -1.962000000    -3.245000000
O    -6.963000000    -2.148000000     1.164000000
H    -6.389000000    -2.838000000     1.496000000
H    -6.369000000    -1.440000000     0.917000000
O    -7.398000000    -0.643000000    -1.969000000
H    -7.535000000    -1.574000000    -2.144000000
H    -6.449000000    -0.554000000    -1.875000000
O    -3.797000000    -3.371000000    -2.748000000
H    -3.592000000    -3.936000000    -2.002000000
H    -4.008000000    -2.524000000    -2.356000000
O    -4.576000000    -0.785000000     2.546000000
H    -3.983000000    -0.721000000     3.295000000
H    -4.759000000    -1.721000000     2.465000000
O    -4.618000000    -0.781000000    -1.833000000
H    -4.812000000    -0.501000000    -0.938000000
H    -3.901000000    -0.213000000    -2.112000000
O    -3.037000000    -1.871000000    -5.589000000
H    -3.448000000    -1.007000000    -5.600000000
H    -3.087000000    -2.149000000    -4.675000000
O     0.538000000    -5.032000000    -0.726000000
H     1.258000000    -5.566000000    -1.062000000
H    -0.250000000    -5.527000000    -0.947000000
O    -0.421000000     4.865000000     3.828000000
H     0.475000000     5.030000000     3.536000000
H    -0.556000000     3.930000000     3.671000000
O     4.807000000     1.766000000    -1.813000000
H     4.216000000     2.186000000    -2.438000000
H     4.901000000     2.405000000    -1.106000000
O    -3.380000000    -0.769000000     5.140000000
H    -2.725000000    -0.096000000     5.325000000
H    -2.872000000    -1.573000000     5.027000000
O    -0.866000000    -1.277000000    -7.175000000
H    -0.542000000    -0.390000000    -7.016000000
H    -1.663000000    -1.339000000    -6.647000000
O    -3.290000000    -5.156000000    -0.516000000
H    -2.999000000    -4.821000000     0.332000000
H    -2.567000000    -5.708000000    -0.817000000
O     2.263000000     4.809000000     2.624000000
H     2.722000000     4.632000000     3.446000000
H     1.992000000     3.946000000     2.311000000
O     4.885000000    -0.905000000    -0.940000000
H     5.257000000    -0.986000000    -1.818000000
H     4.730000000     0.033000000    -0.831000000
O     7.000000000    -1.276000000     0.522000000
H     6.234000000    -1.160000000    -0.041000000
H     7.323000000    -0.388000000     0.672000000
O    -2.471000000     3.624000000    -2.511000000
H    -1.846000000     3.086000000    -2.997000000
H    -2.058000000     4.486000000    -2.462000000
O     2.353000000     1.227000000    -3.295000000
H     2.284000000     1.654000000    -4.149000000
H     2.996000000     0.530000000    -3.426000000
O     3.104000000     7.424000000     2.302000000
H     2.886000000     6.492000000     2.337000000
H     4.012000000     7.447000000     2.000000000
O     0.079000000     2.138000000    -2.583000000
H    -0.143000000     1.771000000    -1.727000000
H     1.011000000     1.946000000    -2.690000000
O    -1.145000000     7.158000000     2.289000000
H    -0.890000000     7.335000000     3.194000000
H    -1.576000000     6.303000000     2.325000000
O     2.527000000    -3.767000000    -2.500000000
H     1.666000000    -3.762000000    -2.082000000
H     3.092000000    -4.227000000    -1.879000000
O     2.938000000     1.121000000     6.818000000
H     3.486000000     0.337000000     6.783000000
H     3.534000000     1.818000000     7.092000000
O    -1.703000000     1.666000000    -4.456000000
H    -1.026000000     1.714000000    -3.781000000
H    -1.392000000     0.993000000    -5.061000000
