161
-3079.58089
C     1.177000000     0.945000000     0.004000000
H     2.114000000     1.496000000     0.000000000
C     0.917000000    -0.033000000    -0.937000000
H     1.587000000    -0.076000000    -1.792000000
C    -0.198000000    -0.848000000    -0.833000000
C    -0.359000000    -2.070000000    -1.700000000
H    -1.383000000    -2.441000000    -1.619000000
H    -0.197000000    -2.006000000    -2.778000000
H     0.254000000    -2.867000000    -1.274000000
C    -1.157000000    -0.579000000     0.133000000
H    -1.943000000    -1.299000000     0.348000000
C    -0.912000000     0.433000000     1.014000000
H    -1.683000000     0.504000000     1.778000000
C     0.195000000     1.246000000     0.939000000
C     0.445000000     2.329000000     1.890000000
O    -0.465000000     2.759000000     2.560000000
O     1.600000000     2.506000000     2.269000000
O    -3.397000000    -3.325000000     0.499000000
H    -4.254000000    -3.741000000     0.399000000
H    -2.770000000    -4.012000000     0.274000000
O     0.251000000    -2.947000000     2.340000000
H    -0.657000000    -2.756000000     2.576000000
H     0.583000000    -2.124000000     1.981000000
O    -5.026000000     1.050000000     1.940000000
H    -5.603000000     1.676000000     2.377000000
H    -4.153000000     1.255000000     2.275000000
O    -1.864000000     4.653000000     5.427000000
H    -2.292000000     4.264000000     4.664000000
H    -0.964000000     4.811000000     5.141000000
O     2.213000000    -4.693000000     1.615000000
H     1.654000000    -5.331000000     1.173000000
H     1.604000000    -4.049000000     1.976000000
O     4.227000000     2.027000000     1.512000000
H     3.300000000     2.084000000     1.743000000
H     4.545000000     1.257000000     1.985000000
O    -2.906000000     2.477000000     3.261000000
H    -2.998000000     2.215000000     4.177000000
H    -1.962000000     2.469000000     3.103000000
O    -4.430000000    -1.824000000    -1.536000000
H    -4.082000000    -2.302000000    -0.784000000
H    -4.721000000    -0.987000000    -1.174000000
O     1.073000000     2.035000000     5.092000000
H     0.396000000     1.366000000     4.993000000
H     1.319000000     2.261000000     4.195000000
O    -2.335000000    -5.102000000    -5.737000000
H    -2.463000000    -5.838000000    -5.139000000
H    -3.110000000    -4.554000000    -5.612000000
O    -1.773000000    -5.412000000    -0.052000000
H    -1.928000000    -6.345000000     0.093000000
H    -0.912000000    -5.249000000     0.333000000
O     4.062000000     3.836000000    -2.122000000
H     3.509000000     4.207000000    -1.435000000
H     4.653000000     4.550000000    -2.364000000
O    -4.417000000     1.056000000    -0.956000000
H    -3.664000000     1.641000000    -1.049000000
H    -4.912000000     1.418000000    -0.221000000
O     2.878000000     5.268000000     3.670000000
H     3.599000000     5.788000000     3.313000000
H     3.256000000     4.400000000     3.810000000
O     4.756000000    -0.378000000     3.087000000
H     4.644000000    -0.961000000     2.336000000
H     4.345000000    -0.845000000     3.815000000
O    -5.878000000    -4.122000000     0.486000000
H    -6.649000000    -3.977000000    -0.063000000
H    -6.014000000    -4.989000000     0.867000000
O    -2.925000000     3.459000000     0.639000000
H    -2.294000000     4.130000000     0.898000000
H    -3.373000000     3.225000000     1.451000000
O     0.469000000     4.688000000    -1.830000000
H     0.985000000     5.059000000    -2.546000000
H     1.077000000     4.652000000    -1.091000000
O     5.163000000     0.999000000    -1.362000000
H     4.912000000     1.082000000    -0.442000000
H     4.738000000     1.739000000    -1.794000000
O     0.140000000    -0.426000000    -7.973000000
H     0.969000000    -0.803000000    -8.268000000
H     0.139000000    -0.561000000    -7.026000000
O     1.430000000    -6.738000000    -0.094000000
H     1.860000000    -7.571000000     0.101000000
H     1.758000000    -6.495000000    -0.959000000
O    -0.838000000    -0.205000000     4.109000000
H     0.095000000    -0.249000000     3.900000000
H    -1.212000000    -0.987000000     3.703000000
O     0.663000000    -1.081000000    -5.199000000
H     1.502000000    -1.066000000    -4.737000000
H     0.571000000    -1.985000000    -5.500000000
O    -6.536000000    -1.054000000     1.477000000
H    -6.041000000    -0.237000000     1.411000000
H    -5.956000000    -1.717000000     1.104000000
O    -4.553000000    -3.538000000    -5.325000000
H    -4.940000000    -3.416000000    -4.458000000
H    -4.253000000    -2.665000000    -5.579000000
O    -2.330000000    -2.520000000     2.851000000
H    -2.695000000    -3.230000000     3.379000000
H    -2.843000000    -2.534000000     2.044000000
O    -3.544000000    -1.148000000    -4.484000000
H    -3.667000000    -1.317000000    -3.550000000
H    -2.753000000    -0.610000000    -4.527000000
O     5.617000000     4.482000000     0.758000000
H     5.594000000     4.521000000    -0.198000000
H     5.166000000     3.666000000     0.976000000
O     0.251000000     5.168000000     3.077000000
H     1.160000000     5.066000000     3.358000000
H    -0.025000000     4.283000000     2.836000000
O    -1.118000000     2.444000000     7.169000000
H    -1.023000000     3.233000000     6.635000000
H    -1.951000000     2.064000000     6.889000000
O     4.937000000     2.669000000    -4.952000000
H     5.000000000     3.624000000    -4.985000000
H     4.003000000     2.488000000    -5.052000000
O    -4.260000000    -5.769000000    -2.627000000
H    -3.447000000    -5.542000000    -2.175000000
H    -4.002000000    -6.434000000    -3.265000000
O     2.479000000     4.413000000     0.163000000
H     2.700000000     5.270000000     0.526000000
H     2.249000000     3.882000000     0.926000000
O     3.090000000    -0.940000000    -4.296000000
H     3.693000000    -1.178000000    -5.000000000
H     3.254000000    -0.009000000    -4.144000000
O     4.498000000     6.438000000     2.109000000
H     5.229000000     6.916000000     2.500000000
H     4.907000000     5.857000000     1.468000000
O     4.527000000    -1.781000000    -1.685000000
H     4.032000000    -1.950000000    -2.487000000
H     4.590000000    -0.827000000    -1.639000000
O     2.896000000     2.681000000     6.951000000
H     2.351000000     2.401000000     6.216000000
H     2.870000000     1.945000000     7.562000000
O     4.379000000    -1.843000000     0.951000000
H     4.665000000    -2.700000000     1.267000000
H     4.362000000    -1.931000000    -0.002000000
O     2.488000000     1.882000000    -3.503000000
H     2.888000000     2.577000000    -2.980000000
H     1.560000000     2.115000000    -3.539000000
O    -4.574000000     4.987000000     3.773000000
H    -4.898000000     5.778000000     3.343000000
H    -5.089000000     4.923000000     4.577000000
O    -0.905000000     2.144000000    -2.241000000
H    -1.275000000     2.018000000    -1.367000000
H    -0.382000000     2.942000000    -2.168000000
O     0.438000000    -2.509000000     5.161000000
H     0.838000000    -2.661000000     4.305000000
H     0.739000000    -3.240000000     5.700000000
O    -2.879000000     0.940000000     5.667000000
H    -3.128000000     0.294000000     6.328000000
H    -2.227000000     0.492000000     5.128000000
O    -1.115000000     7.131000000     1.793000000
H    -1.190000000     7.933000000     2.310000000
H    -0.675000000     6.511000000     2.375000000
O    -6.151000000    -3.607000000    -2.822000000
H    -5.569000000    -2.988000000    -2.382000000
H    -5.820000000    -4.469000000    -2.569000000
O     0.356000000    -3.746000000    -5.865000000
H    -0.580000000    -3.945000000    -5.827000000
H     0.713000000    -4.125000000    -5.062000000
O     1.630000000    -0.444000000     3.064000000
H     2.229000000    -0.347000000     3.804000000
H     2.079000000    -0.014000000     2.335000000
O    -1.541000000     0.740000000    -4.419000000
H    -0.805000000     0.162000000    -4.621000000
H    -1.264000000     1.218000000    -3.637000000
