161
-3048.21733
C     1.513000000    -0.046000000     0.240000000
H     2.556000000    -0.278000000     0.436000000
C     0.856000000    -0.659000000    -0.806000000
H     1.480000000    -1.325000000    -1.395000000
C    -0.514000000    -0.424000000    -1.067000000
C    -1.433000000    -1.094000000    -2.067000000
H    -2.033000000    -1.856000000    -1.566000000
H    -2.213000000    -0.469000000    -2.508000000
H    -0.825000000    -1.639000000    -2.793000000
C    -1.197000000     0.313000000    -0.134000000
H    -2.275000000     0.331000000    -0.272000000
C    -0.539000000     1.004000000     0.903000000
H    -1.151000000     1.481000000     1.664000000
C     0.801000000     0.765000000     1.145000000
C     1.478000000     1.125000000     2.450000000
O     0.800000000     1.746000000     3.200000000
O     2.703000000     1.033000000     2.570000000
O    -4.678000000     2.190000000    -1.332000000
H    -4.627000000     1.597000000    -2.081000000
H    -5.490000000     1.947000000    -0.888000000
O     3.138000000    -2.778000000    -3.529000000
H     4.007000000    -2.520000000    -3.836000000
H     2.600000000    -1.996000000    -3.647000000
O     1.540000000    -3.944000000     0.932000000
H     1.379000000    -3.770000000     0.005000000
H     2.216000000    -4.623000000     0.935000000
O     2.828000000     4.076000000     3.523000000
H     2.209000000     3.444000000     3.158000000
H     3.656000000     3.598000000     3.571000000
O    -5.385000000     2.449000000     2.450000000
H    -5.124000000     1.885000000     1.722000000
H    -4.720000000     2.294000000     3.122000000
O    -3.957000000    -3.040000000     1.256000000
H    -4.541000000    -2.439000000     0.792000000
H    -4.469000000    -3.842000000     1.356000000
O    -2.308000000     2.855000000    -2.618000000
H    -2.950000000     2.643000000    -1.940000000
H    -1.460000000     2.738000000    -2.190000000
O    -2.641000000     3.115000000     3.674000000
H    -2.957000000     3.588000000     4.444000000
H    -1.793000000     3.514000000     3.480000000
O    -2.316000000    -3.182000000    -5.668000000
H    -2.669000000    -3.757000000    -6.346000000
H    -2.946000000    -2.465000000    -5.609000000
O    -5.555000000    -3.124000000    -2.674000000
H    -5.362000000    -3.066000000    -3.609000000
H    -5.141000000    -3.941000000    -2.394000000
O    -4.481000000     0.507000000    -4.158000000
H    -3.869000000     1.216000000    -4.357000000
H    -3.950000000    -0.288000000    -4.204000000
O     0.645000000    -2.696000000     3.348000000
H     0.907000000    -3.214000000     2.587000000
H    -0.296000000    -2.562000000     3.235000000
O    -6.290000000    -0.604000000    -1.232000000
H    -6.642000000    -1.416000000    -0.866000000
H    -5.889000000    -0.869000000    -2.060000000
O    -0.462000000     4.094000000     7.227000000
H     0.352000000     3.667000000     6.959000000
H    -0.778000000     3.567000000     7.962000000
O     0.578000000     4.749000000     0.305000000
H     0.380000000     4.301000000    -0.518000000
H     0.917000000     5.603000000     0.037000000
O     5.379000000     1.275000000     1.578000000
H     4.495000000     1.097000000     1.899000000
H     5.947000000     0.749000000     2.142000000
O    -0.198000000     4.119000000     2.921000000
H     0.198000000     3.250000000     2.848000000
H    -0.053000000     4.521000000     2.065000000
O    -1.935000000    -6.168000000    -3.464000000
H    -1.051000000    -5.833000000    -3.316000000
H    -1.911000000    -6.524000000    -4.352000000
O     3.000000000    -1.334000000     3.759000000
H     2.094000000    -1.640000000     3.785000000
H     2.947000000    -0.458000000     3.379000000
O    -1.222000000    -4.500000000    -0.301000000
H    -1.305000000    -4.235000000     0.615000000
H    -1.454000000    -3.716000000    -0.799000000
O     1.387000000    -1.123000000    -6.228000000
H     0.607000000    -0.577000000    -6.328000000
H     1.978000000    -0.598000000    -5.688000000
O     4.660000000    -0.628000000    -1.522000000
H     5.063000000     0.102000000    -1.053000000
H     4.401000000    -1.241000000    -0.834000000
O     4.191000000    -2.451000000     0.607000000
H     4.358000000    -2.313000000     1.539000000
H     3.399000000    -2.988000000     0.583000000
O     1.495000000    -4.332000000    -1.741000000
H     2.161000000    -3.976000000    -2.330000000
H     0.682000000    -4.285000000    -2.244000000
O     0.548000000     1.876000000    -4.306000000
H     1.296000000     2.383000000    -4.620000000
H     0.367000000     2.231000000    -3.435000000
O     5.330000000     3.252000000    -0.259000000
H     5.466000000     2.617000000     0.444000000
H     4.490000000     3.662000000    -0.052000000
O    -1.398000000     0.673000000     4.185000000
H    -2.096000000     1.324000000     4.110000000
H    -0.597000000     1.156000000     3.981000000
O    -0.094000000    -3.949000000    -4.255000000
H     0.455000000    -4.281000000    -4.965000000
H    -0.903000000    -3.673000000    -4.686000000
O    -1.685000000    -3.896000000     2.698000000
H    -2.041000000    -4.701000000     3.072000000
H    -2.427000000    -3.493000000     2.247000000
O    -3.027000000     2.536000000    -5.127000000
H    -3.281000000     3.451000000    -5.252000000
H    -2.573000000     2.527000000    -4.284000000
O    -4.760000000    -2.157000000    -5.503000000
H    -5.169000000    -2.868000000    -5.997000000
H    -5.423000000    -1.466000000    -5.485000000
O     0.776000000     6.136000000     4.745000000
H     0.323000000     5.499000000     4.193000000
H     1.140000000     5.617000000     5.462000000
O    -4.605000000     5.069000000     1.087000000
H    -4.501000000     4.201000000     1.477000000
H    -4.758000000     4.898000000     0.157000000
O     2.561000000    -0.067000000    -3.743000000
H     1.976000000     0.691000000    -3.736000000
H     3.132000000     0.064000000    -2.987000000
O     3.200000000     2.826000000    -1.940000000
H     3.371000000     3.679000000    -2.340000000
H     4.027000000     2.589000000    -1.520000000
O     6.490000000     3.849000000     3.003000000
H     7.344000000     4.077000000     3.368000000
H     6.537000000     2.904000000     2.855000000
O     4.874000000    -3.252000000     4.145000000
H     4.335000000    -2.461000000     4.144000000
H     4.360000000    -3.891000000     4.638000000
O     5.597000000    -1.793000000    -3.675000000
H     5.208000000    -1.421000000    -2.884000000
H     6.530000000    -1.861000000    -3.473000000
O     7.177000000     1.683000000     5.027000000
H     7.622000000     1.977000000     5.821000000
H     6.249000000     1.848000000     5.197000000
O     3.327000000    -0.086000000     6.357000000
H     3.454000000    -0.430000000     5.473000000
H     2.683000000    -0.673000000     6.752000000
O     3.399000000     5.337000000     0.955000000
H     2.462000000     5.347000000     0.761000000
H     3.447000000     5.170000000     1.896000000
O     0.269000000     2.401000000    -1.691000000
H    -0.100000000     1.875000000    -0.982000000
H     1.191000000     2.507000000    -1.456000000
O    -4.430000000    -1.411000000     3.642000000
H    -3.892000000    -1.438000000     2.851000000
H    -5.196000000    -1.945000000     3.429000000
O    -0.307000000    -0.671000000     6.273000000
H    -1.171000000    -1.045000000     6.447000000
H    -0.432000000    -0.137000000     5.488000000
O    -4.440000000    -5.777000000    -2.285000000
H    -4.852000000    -6.627000000    -2.442000000
H    -3.545000000    -5.882000000    -2.607000000
O     6.662000000    -3.508000000     0.339000000
H     5.973000000    -2.874000000     0.538000000
H     6.225000000    -4.359000000     0.387000000
O     1.849000000     2.274000000     6.419000000
H     1.468000000     2.310000000     5.542000000
H     2.374000000     1.474000000     6.420000000
O    -0.812000000     0.988000000    -6.287000000
H    -1.672000000     1.311000000    -6.019000000
H    -0.221000000     1.269000000    -5.588000000
