161
-3038.86603
C     0.625000000    -0.430000000     1.345000000
H     1.017000000    -0.940000000     2.222000000
C     0.882000000    -1.059000000     0.090000000
H     1.600000000    -1.870000000     0.002000000
C     0.302000000    -0.513000000    -1.052000000
C     0.594000000    -1.058000000    -2.442000000
H     1.649000000    -0.826000000    -2.606000000
H     0.475000000    -2.136000000    -2.562000000
H    -0.059000000    -0.516000000    -3.129000000
C    -0.600000000     0.594000000    -1.015000000
H    -1.030000000     1.004000000    -1.925000000
C    -0.874000000     1.143000000     0.244000000
H    -1.663000000     1.891000000     0.273000000
C    -0.266000000     0.637000000     1.409000000
C    -0.726000000     1.208000000     2.679000000
O    -1.616000000     2.027000000     2.709000000
O    -0.316000000     0.843000000     3.763000000
O    -1.350000000    -3.758000000    -0.931000000
H    -0.692000000    -4.278000000    -1.392000000
H    -0.939000000    -3.539000000    -0.094000000
O     2.086000000    -0.070000000    -7.970000000
H     1.413000000     0.055000000    -7.301000000
H     2.674000000     0.677000000    -7.861000000
O    -0.295000000    -2.856000000    -6.970000000
H    -0.594000000    -3.757000000    -6.847000000
H    -0.966000000    -2.321000000    -6.546000000
O     3.350000000     1.774000000     1.936000000
H     4.228000000     1.972000000     1.610000000
H     2.813000000     1.699000000     1.147000000
O     1.031000000    -6.316000000    -3.949000000
H     1.029000000    -7.074000000    -3.364000000
H     0.376000000    -5.725000000    -3.577000000
O     0.253000000    -4.016000000     1.662000000
H    -0.626000000    -3.866000000     2.011000000
H     0.839000000    -3.759000000     2.374000000
O    -2.541000000     5.043000000    -4.766000000
H    -2.304000000     4.222000000    -4.334000000
H    -3.431000000     4.897000000    -5.087000000
O     2.944000000    -4.637000000     0.754000000
H     3.174000000    -5.543000000     0.958000000
H     2.090000000    -4.508000000     1.166000000
O    -3.224000000    -2.237000000    -1.942000000
H    -2.376000000    -2.315000000    -1.504000000
H    -3.867000000    -2.338000000    -1.240000000
O     5.026000000    -0.103000000    -3.294000000
H     5.804000000    -0.543000000    -3.636000000
H     4.332000000    -0.760000000    -3.357000000
O    -1.704000000     2.852000000    -3.553000000
H    -1.555000000     3.430000000    -2.804000000
H    -2.480000000     2.345000000    -3.313000000
O    -0.128000000     2.582000000     5.745000000
H    -0.849000000     3.142000000     5.458000000
H    -0.100000000     1.876000000     5.099000000
O    -3.067000000     1.836000000     7.609000000
H    -2.212000000     2.185000000     7.861000000
H    -2.955000000     1.563000000     6.699000000
O    -2.512000000    -1.015000000    -5.852000000
H    -2.655000000    -0.114000000    -6.143000000
H    -3.257000000    -1.502000000    -6.205000000
O    -2.523000000     4.245000000    -1.079000000
H    -3.226000000     4.279000000    -1.729000000
H    -2.911000000     4.616000000    -0.287000000
O    -4.356000000    -0.764000000     4.096000000
H    -5.146000000    -1.274000000     4.278000000
H    -3.843000000    -1.320000000     3.509000000
O    -5.694000000     2.590000000     5.583000000
H    -6.178000000     1.937000000     5.079000000
H    -4.775000000     2.418000000     5.379000000
O     1.989000000    -3.612000000     3.602000000
H     1.809000000    -2.838000000     4.135000000
H     2.880000000    -3.866000000     3.842000000
O     0.778000000     5.279000000    -0.345000000
H    -0.086000000     4.887000000    -0.222000000
H     1.235000000     4.674000000    -0.929000000
O     3.810000000    -4.357000000    -2.518000000
H     3.384000000    -5.175000000    -2.261000000
H     3.930000000    -3.881000000    -1.696000000
O     5.137000000     2.385000000    -4.626000000
H     4.345000000     2.879000000    -4.835000000
H     4.830000000     1.657000000    -4.085000000
O    -1.487000000    -0.754000000     5.329000000
H    -1.250000000    -1.578000000     4.903000000
H    -1.218000000    -0.077000000     4.709000000
O    -4.432000000     2.951000000    -3.042000000
H    -4.614000000     2.011000000    -3.016000000
H    -5.287000000     3.356000000    -3.190000000
O    -1.963000000    -2.128000000     7.633000000
H    -1.421000000    -2.894000000     7.447000000
H    -1.729000000    -1.498000000     6.951000000
O    -1.723000000    -5.822000000    -3.060000000
H    -2.510000000    -5.315000000    -3.259000000
H    -1.783000000    -6.591000000    -3.626000000
O    -3.276000000     5.238000000     1.413000000
H    -3.868000000     5.735000000     1.978000000
H    -3.620000000     4.345000000     1.433000000
O    -3.946000000     2.685000000     1.593000000
H    -3.107000000     2.518000000     2.024000000
H    -4.139000000     1.873000000     1.123000000
O    -1.746000000    -3.754000000     3.138000000
H    -1.115000000    -3.996000000     3.816000000
H    -2.267000000    -4.545000000     3.003000000
O     5.037000000    -3.436000000    -0.254000000
H     5.342000000    -2.889000000     0.470000000
H     4.297000000    -3.923000000     0.109000000
O     3.423000000    -2.142000000    -4.058000000
H     3.319000000    -3.075000000    -3.873000000
H     3.766000000    -2.112000000    -4.951000000
O     1.372000000    -1.084000000     4.697000000
H     0.982000000    -0.382000000     4.177000000
H     0.983000000    -0.983000000     5.566000000
O     0.821000000     1.988000000    -4.050000000
H    -0.122000000     2.140000000    -3.981000000
H     0.897000000     1.070000000    -4.310000000
O    -3.436000000     6.219000000     4.640000000
H    -3.601000000     5.829000000     5.499000000
H    -2.922000000     5.561000000     4.173000000
O    -3.093000000     1.587000000     4.964000000
H    -2.572000000     1.994000000     4.272000000
H    -3.260000000     0.699000000     4.648000000
O     1.385000000     3.362000000     7.858000000
H     0.974000000     3.409000000     6.995000000
H     2.234000000     2.952000000     7.698000000
O     2.905000000     3.832000000     4.087000000
H     3.735000000     3.726000000     4.552000000
H     2.957000000     3.209000000     3.362000000
O     1.931000000     4.032000000    -2.236000000
H     1.814000000     3.182000000    -2.660000000
H     2.448000000     4.542000000    -2.860000000
O     0.888000000     0.208000000     7.049000000
H     0.171000000     0.607000000     6.557000000
H     0.853000000     0.630000000     7.908000000
O     6.241000000     0.364000000    -1.024000000
H     5.737000000     0.356000000    -1.838000000
H     7.151000000     0.271000000    -1.306000000
O    -6.336000000     4.266000000     0.820000000
H    -5.606000000     3.687000000     1.041000000
H    -6.051000000     4.717000000     0.026000000
O    -3.903000000    -4.203000000    -3.724000000
H    -4.833000000    -4.106000000    -3.519000000
H    -3.465000000    -3.569000000    -3.156000000
O     0.833000000     5.742000000     2.704000000
H     1.136000000     5.470000000     1.838000000
H     1.357000000     5.223000000     3.314000000
O    -2.569000000     1.810000000    -6.224000000
H    -2.109000000     2.070000000    -5.426000000
H    -3.257000000     2.467000000    -6.328000000
O    -4.733000000     0.802000000    -0.369000000
H    -4.122000000     0.802000000    -1.106000000
H    -5.099000000    -0.083000000    -0.361000000
O    -1.512000000     4.478000000     3.944000000
H    -0.716000000     4.801000000     3.521000000
H    -1.722000000     3.671000000     3.473000000
O    -4.240000000     0.288000000    -3.497000000
H    -4.128000000    -0.378000000    -2.819000000
H    -4.037000000    -0.165000000    -4.315000000
O     0.746000000    -0.385000000    -5.614000000
H     0.194000000    -1.152000000    -5.762000000
H     1.605000000    -0.746000000    -5.396000000
O     4.051000000    -0.281000000     3.565000000
H     3.887000000     0.347000000     2.862000000
H     3.197000000    -0.402000000     3.982000000
