161
-2995.55627
C     1.040000000     0.457000000     0.873000000
H     1.884000000     0.870000000     1.419000000
C     1.221000000     0.058000000    -0.392000000
H     2.224000000     0.114000000    -0.808000000
C     0.190000000    -0.513000000    -1.100000000
C     0.371000000    -0.904000000    -2.533000000
H    -0.580000000    -0.871000000    -3.069000000
H     0.922000000    -0.054000000    -2.940000000
H     0.913000000    -1.847000000    -2.629000000
C    -1.072000000    -0.552000000    -0.548000000
H    -1.861000000    -1.152000000    -0.995000000
C    -1.300000000    -0.124000000     0.753000000
H    -2.320000000    -0.160000000     1.126000000
C    -0.244000000     0.494000000     1.447000000
C    -0.386000000     1.169000000     2.810000000
O    -1.359000000     0.928000000     3.459000000
O     0.349000000     2.083000000     3.125000000
O    -3.372000000     1.853000000    -1.782000000
H    -3.572000000     2.116000000    -2.681000000
H    -3.056000000     0.953000000    -1.861000000
O     3.082000000    -4.205000000    -2.686000000
H     2.484000000    -4.680000000    -3.263000000
H     3.284000000    -3.400000000    -3.163000000
O    -0.199000000    -4.107000000    -5.962000000
H     0.359000000    -4.825000000    -5.661000000
H    -1.060000000    -4.507000000    -6.084000000
O     2.361000000     4.253000000    -1.091000000
H     2.096000000     4.156000000    -2.006000000
H     1.725000000     3.732000000    -0.601000000
O    -5.830000000     0.674000000    -1.583000000
H    -6.416000000     1.215000000    -2.113000000
H    -4.978000000     1.102000000    -1.656000000
O     5.685000000    -0.941000000    -2.456000000
H     5.052000000    -0.287000000    -2.751000000
H     6.018000000    -1.333000000    -3.263000000
O     3.709000000     0.697000000    -3.820000000
H     3.283000000     0.290000000    -4.573000000
H     3.148000000     1.440000000    -3.599000000
O    -3.200000000     3.733000000     6.941000000
H    -2.247000000     3.697000000     7.024000000
H    -3.384000000     3.301000000     6.107000000
O     3.210000000    -3.370000000     1.038000000
H     2.669000000    -3.852000000     0.414000000
H     3.896000000    -2.971000000     0.503000000
O     1.452000000     3.082000000    -3.737000000
H     1.134000000     2.230000000    -4.037000000
H     0.665000000     3.626000000    -3.683000000
O    -4.883000000     2.856000000     4.476000000
H    -5.137000000     2.679000000     3.571000000
H    -5.411000000     2.250000000     4.996000000
O     1.240000000     4.119000000     1.746000000
H     1.131000000     3.347000000     2.302000000
H     0.561000000     4.030000000     1.077000000
O    -5.460000000    -1.819000000    -0.265000000
H    -5.300000000    -2.632000000    -0.744000000
H    -5.381000000    -1.131000000    -0.926000000
O    -6.921000000    -1.056000000     1.987000000
H    -6.681000000    -1.772000000     2.576000000
H    -6.431000000    -1.232000000     1.184000000
O    -2.905000000    -0.597000000    -6.544000000
H    -2.371000000    -1.041000000    -7.202000000
H    -2.955000000     0.310000000    -6.847000000
O    -0.385000000     1.701000000     6.089000000
H    -0.442000000     1.504000000     5.154000000
H    -0.593000000     0.873000000     6.522000000
O     3.105000000    -0.254000000     5.770000000
H     2.740000000    -0.907000000     5.174000000
H     2.734000000    -0.476000000     6.624000000
O    -0.178000000     3.338000000    -0.501000000
H    -0.633000000     3.265000000    -1.340000000
H    -0.878000000     3.443000000     0.143000000
O    -2.392000000    -4.877000000     3.490000000
H    -2.761000000    -4.226000000     2.893000000
H    -1.867000000    -4.366000000     4.106000000
O    -4.153000000    -3.632000000     1.955000000
H    -5.058000000    -3.704000000     2.259000000
H    -4.191000000    -3.000000000     1.237000000
O     1.769000000    -4.762000000    -0.446000000
H     2.052000000    -4.428000000    -1.298000000
H     0.937000000    -5.199000000    -0.625000000
O    -0.646000000    -5.603000000    -1.777000000
H    -0.447000000    -6.485000000    -2.093000000
H    -1.375000000    -5.726000000    -1.169000000
O    -3.888000000     3.174000000     0.570000000
H    -4.315000000     2.446000000     1.020000000
H    -3.749000000     2.857000000    -0.322000000
O    -1.178000000    -2.476000000     4.796000000
H    -0.789000000    -1.670000000     4.456000000
H    -0.430000000    -2.997000000     5.088000000
O    -0.304000000     3.562000000     7.979000000
H    -0.444000000     2.828000000     7.380000000
H     0.404000000     3.271000000     8.553000000
O     0.412000000    -1.373000000    -6.289000000
H     0.290000000    -2.310000000    -6.132000000
H    -0.264000000    -1.147000000    -6.928000000
O    -4.892000000     1.102000000     2.122000000
H    -5.568000000     0.474000000     1.866000000
H    -4.230000000     0.573000000     2.566000000
O     1.302000000     0.992000000    -5.536000000
H     1.139000000     0.060000000    -5.679000000
H     0.766000000     1.433000000    -6.195000000
O    -2.266000000     3.698000000     3.892000000
H    -3.114000000     3.253000000     3.871000000
H    -1.645000000     3.045000000     3.568000000
O     0.637000000     4.779000000     5.522000000
H     0.427000000     3.990000000     5.023000000
H     0.337000000     4.589000000     6.410000000
O    -3.313000000    -0.591000000     4.217000000
H    -2.688000000    -1.195000000     4.618000000
H    -2.773000000     0.124000000     3.879000000
O     3.636000000    -2.369000000     3.593000000
H     4.546000000    -2.074000000     3.631000000
H     3.541000000    -2.740000000     2.716000000
O     6.849000000     0.115000000     0.531000000
H     6.107000000     0.038000000     1.130000000
H     6.467000000    -0.002000000    -0.339000000
O     4.508000000     2.615000000    -0.889000000
H     4.104000000     2.057000000    -0.225000000
H     3.942000000     3.386000000    -0.932000000
O     0.222000000     6.563000000     3.449000000
H     0.582000000     5.935000000     4.075000000
H     0.583000000     6.294000000     2.605000000
O    -4.937000000    -4.265000000    -1.323000000
H    -5.358000000    -4.286000000    -2.182000000
H    -5.539000000    -4.738000000    -0.749000000
O     4.523000000     0.249000000     2.031000000
H     3.647000000    -0.136000000     2.004000000
H     4.661000000     0.465000000     2.953000000
O    -1.813000000    -3.233000000    -3.283000000
H    -1.669000000    -3.963000000    -2.680000000
H    -1.167000000    -3.365000000    -3.977000000
O     2.900000000    -2.232000000    -5.218000000
H     2.062000000    -1.902000000    -5.542000000
H     3.523000000    -2.026000000    -5.914000000
O    -3.964000000    -1.394000000    -3.720000000
H    -3.770000000    -1.117000000    -4.616000000
H    -3.331000000    -2.090000000    -3.542000000
O    -0.834000000    -0.790000000     6.865000000
H    -1.130000000    -1.557000000     6.374000000
H    -0.261000000    -1.147000000     7.544000000
O     5.346000000    -3.119000000    -1.016000000
H     5.576000000    -2.306000000    -1.465000000
H     4.815000000    -3.601000000    -1.651000000
O    -0.352000000    -3.728000000     0.416000000
H    -0.677000000    -2.838000000     0.284000000
H     0.384000000    -3.807000000    -0.191000000
O    -1.746000000     4.816000000     1.446000000
H    -1.447000000     4.872000000     2.353000000
H    -2.519000000     4.253000000     1.483000000
O    -4.184000000    -0.090000000     6.720000000
H    -4.951000000     0.480000000     6.671000000
H    -3.939000000    -0.240000000     5.807000000
O     4.179000000     3.759000000     5.691000000
H     3.991000000     3.166000000     4.964000000
H     4.344000000     3.181000000     6.436000000
O     2.763000000     1.620000000     3.810000000
H     2.854000000     1.198000000     4.665000000
H     1.828000000     1.811000000     3.736000000
O     4.002000000     3.623000000     2.517000000
H     3.716000000     2.840000000     2.988000000
H     3.235000000     3.891000000     2.010000000
