161
-3018.89769
C     0.979000000     0.961000000     0.594000000
H     1.791000000     1.576000000     0.974000000
C     1.243000000    -0.278000000     0.067000000
H     2.287000000    -0.543000000    -0.082000000
C     0.287000000    -1.016000000    -0.585000000
C     0.668000000    -2.257000000    -1.355000000
H     0.225000000    -2.214000000    -2.352000000
H     1.720000000    -2.438000000    -1.587000000
H     0.392000000    -3.081000000    -0.693000000
C    -1.036000000    -0.632000000    -0.590000000
H    -1.812000000    -1.220000000    -1.073000000
C    -1.349000000     0.525000000     0.180000000
H    -2.378000000     0.871000000     0.231000000
C    -0.362000000     1.326000000     0.727000000
C    -0.803000000     2.560000000     1.514000000
O    -1.901000000     2.497000000     2.042000000
O     0.050000000     3.357000000     1.987000000
O     5.235000000    -1.062000000    -0.523000000
H     5.757000000    -1.843000000    -0.709000000
H     5.800000000    -0.331000000    -0.770000000
O    -1.395000000     2.549000000    -4.060000000
H    -1.843000000     2.483000000    -4.903000000
H    -0.629000000     1.981000000    -4.152000000
O    -6.998000000    -1.755000000    -1.872000000
H    -7.194000000    -0.819000000    -1.893000000
H    -6.051000000    -1.799000000    -1.738000000
O    -3.347000000    -2.188000000     0.813000000
H    -2.913000000    -1.350000000     0.970000000
H    -4.178000000    -2.120000000     1.282000000
O    -4.562000000    -3.657000000    -1.493000000
H    -3.840000000    -3.363000000    -2.050000000
H    -4.383000000    -3.260000000    -0.640000000
O     2.232000000    -0.037000000     3.442000000
H     2.419000000    -0.467000000     4.276000000
H     2.828000000    -0.454000000     2.819000000
O     3.186000000    -4.074000000    -0.058000000
H     4.014000000    -4.552000000    -0.011000000
H     3.285000000    -3.362000000     0.574000000
O    -0.744000000     5.353000000    -0.185000000
H    -1.214000000     5.536000000     0.628000000
H     0.073000000     4.944000000     0.098000000
O    -0.617000000    -5.400000000    -1.383000000
H    -0.204000000    -6.214000000    -1.095000000
H     0.099000000    -4.888000000    -1.760000000
O     1.038000000     3.182000000     4.759000000
H     1.045000000     3.083000000     3.807000000
H     0.109000000     3.217000000     4.989000000
O    -3.209000000     5.400000000     4.698000000
H    -3.002000000     6.141000000     5.268000000
H    -3.105000000     4.631000000     5.258000000
O     1.967000000     6.060000000     3.846000000
H     2.370000000     5.442000000     4.457000000
H     2.217000000     5.737000000     2.980000000
O    -4.565000000     2.608000000     5.653000000
H    -4.950000000     2.892000000     4.825000000
H    -3.621000000     2.619000000     5.495000000
O     2.384000000     4.778000000     1.280000000
H     1.640000000     4.190000000     1.409000000
H     3.026000000     4.251000000     0.805000000
O     1.448000000    -7.234000000    -0.414000000
H     1.718000000    -7.272000000    -1.332000000
H     2.266000000    -7.300000000     0.078000000
O    -7.270000000     2.433000000     1.836000000
H    -6.456000000     2.181000000     2.272000000
H    -7.011000000     2.614000000     0.932000000
O     3.793000000     3.773000000     4.850000000
H     4.429000000     3.068000000     4.735000000
H     2.960000000     3.324000000     4.994000000
O    -4.532000000     1.858000000     1.788000000
H    -4.547000000     1.998000000     0.841000000
H    -3.690000000     2.217000000     2.069000000
O     2.017000000    -4.927000000    -2.621000000
H     2.701000000    -4.865000000    -3.288000000
H     2.364000000    -4.439000000    -1.875000000
O    -3.092000000     0.884000000    -2.674000000
H    -2.161000000     1.090000000    -2.763000000
H    -3.351000000     0.571000000    -3.541000000
O    -0.310000000     4.918000000    -2.861000000
H    -0.615000000     4.955000000    -1.954000000
H    -0.779000000     4.176000000    -3.241000000
O    -2.884000000    -0.191000000     3.107000000
H    -2.602000000     0.645000000     2.736000000
H    -2.079000000    -0.593000000     3.433000000
O    -5.380000000    -0.650000000     4.200000000
H    -5.160000000    -1.230000000     4.929000000
H    -4.533000000    -0.375000000     3.849000000
O     1.072000000     1.373000000    -4.684000000
H     1.823000000     1.773000000    -4.246000000
H     1.216000000     0.431000000    -4.594000000
O    -5.977000000    -1.035000000     1.535000000
H    -5.866000000    -0.937000000     2.481000000
H    -5.475000000    -0.311000000     1.160000000
O     2.854000000     2.485000000    -3.097000000
H     3.150000000     1.587000000    -2.950000000
H     3.434000000     3.020000000    -2.556000000
O    -3.525000000     4.567000000     2.300000000
H    -3.528000000     5.036000000     3.135000000
H    -2.785000000     3.964000000     2.366000000
O    -0.545000000    -1.583000000    -4.668000000
H    -1.211000000    -0.957000000    -4.953000000
H    -0.449000000    -2.183000000    -5.408000000
O    -1.882000000     2.289000000     4.723000000
H    -1.731000000     1.350000000     4.833000000
H    -1.629000000     2.467000000     3.817000000
O     2.915000000    -4.023000000    -5.181000000
H     2.419000000    -3.298000000    -5.561000000
H     3.813000000    -3.881000000    -5.481000000
O     4.287000000    -1.216000000     1.977000000
H     4.422000000    -2.148000000     2.147000000
H     4.606000000    -1.087000000     1.084000000
O    -6.163000000     4.396000000     3.584000000
H    -5.512000000     4.291000000     2.890000000
H    -6.978000000     4.074000000     3.199000000
O    -1.296000000    -5.774000000     3.556000000
H    -0.919000000    -5.123000000     2.963000000
H    -0.641000000    -5.875000000     4.247000000
O    -1.915000000     7.876000000     3.350000000
H    -2.385000000     7.931000000     2.518000000
H    -1.370000000     7.093000000     3.267000000
O     1.767000000     7.709000000    -0.277000000
H     1.212000000     6.936000000    -0.175000000
H     1.726000000     8.147000000     0.573000000
O     3.730000000     0.078000000    -2.866000000
H     3.917000000    -0.326000000    -2.019000000
H     4.279000000    -0.401000000    -3.487000000
O     1.186000000    -7.132000000    -3.794000000
H     1.549000000    -6.485000000    -3.188000000
H     0.403000000    -6.712000000    -4.152000000
O    -0.605000000     5.600000000     2.981000000
H     0.226000000     5.797000000     3.413000000
H    -0.456000000     4.759000000     2.549000000
O     1.170000000    -4.327000000     2.353000000
H     0.686000000    -4.810000000     1.683000000
H     0.886000000    -3.420000000     2.247000000
O    -1.824000000    -5.481000000    -3.879000000
H    -2.237000000    -4.619000000    -3.940000000
H    -1.443000000    -5.502000000    -3.002000000
O    -3.289000000     6.878000000     0.875000000
H    -3.396000000     6.169000000     1.508000000
H    -3.168000000     6.433000000     0.036000000
O    -1.449000000    -4.159000000     1.295000000
H    -1.100000000    -4.242000000     0.407000000
H    -2.196000000    -3.567000000     1.204000000
O    -3.179000000     3.553000000    -1.822000000
H    -3.043000000     2.747000000    -2.319000000
H    -3.146000000     3.279000000    -0.906000000
O     5.440000000    -0.267000000     4.233000000
H     4.691000000    -0.327000000     3.639000000
H     5.929000000     0.496000000     3.925000000
O    -2.700000000    -2.595000000    -3.471000000
H    -3.307000000    -1.973000000    -3.873000000
H    -1.835000000    -2.311000000    -3.767000000
O    -5.058000000     1.541000000    -0.939000000
H    -5.970000000     1.467000000    -1.221000000
H    -4.549000000     1.299000000    -1.713000000
O    -0.007000000    -1.479000000     2.722000000
H     0.704000000    -1.034000000     3.182000000
H    -0.143000000    -0.958000000     1.930000000
O     4.378000000     3.113000000     0.039000000
H     4.758000000     2.340000000    -0.378000000
H     5.083000000     3.759000000     0.033000000
