161
-3059.49512
C     0.942000000     0.781000000     0.680000000
H     1.771000000     1.259000000     1.196000000
C     1.124000000    -0.508000000     0.183000000
H     2.126000000    -0.895000000     0.346000000
C     0.085000000    -1.191000000    -0.452000000
C     0.343000000    -2.586000000    -1.004000000
H     1.016000000    -2.596000000    -1.863000000
H     0.847000000    -3.282000000    -0.330000000
H    -0.642000000    -2.947000000    -1.306000000
C    -1.199000000    -0.568000000    -0.374000000
H    -2.038000000    -1.072000000    -0.848000000
C    -1.294000000     0.796000000    -0.036000000
H    -2.260000000     1.290000000    -0.092000000
C    -0.189000000     1.471000000     0.498000000
C    -0.256000000     2.941000000     1.030000000
O    -1.039000000     3.770000000     0.619000000
O     0.665000000     3.339000000     1.751000000
O    -1.931000000    -2.618000000    -4.834000000
H    -2.382000000    -2.920000000    -5.622000000
H    -1.002000000    -2.639000000    -5.067000000
O    -5.217000000    -2.415000000     3.025000000
H    -4.905000000    -3.237000000     2.648000000
H    -4.580000000    -1.761000000     2.736000000
O    -2.916000000    -6.478000000    -3.201000000
H    -3.808000000    -6.227000000    -2.962000000
H    -3.028000000    -7.175000000    -3.848000000
O    -1.536000000    -6.174000000    -1.050000000
H    -1.750000000    -5.252000000    -0.909000000
H    -1.904000000    -6.377000000    -1.910000000
O     3.489000000    -4.736000000    -3.028000000
H     2.536000000    -4.765000000    -2.939000000
H     3.787000000    -5.579000000    -2.686000000
O     3.635000000    -4.318000000    -5.711000000
H     3.369000000    -4.324000000    -4.791000000
H     4.366000000    -4.934000000    -5.754000000
O     1.250000000    -3.541000000     3.310000000
H     2.125000000    -3.295000000     3.611000000
H     0.870000000    -2.724000000     2.987000000
O    -1.942000000    -3.072000000     2.016000000
H    -1.962000000    -3.915000000     2.468000000
H    -1.398000000    -2.515000000     2.573000000
O     5.877000000    -0.241000000    -0.856000000
H     5.716000000    -0.130000000     0.081000000
H     5.673000000    -1.160000000    -1.027000000
O     0.199000000     5.922000000    -0.625000000
H     0.000000000     5.024000000    -0.359000000
H     0.408000000     5.855000000    -1.556000000
O     4.284000000    -3.062000000     0.053000000
H     3.937000000    -2.727000000    -0.774000000
H     3.823000000    -3.891000000     0.188000000
O     0.169000000    -1.100000000     3.074000000
H     0.207000000    -0.314000000     3.619000000
H     0.338000000    -0.784000000     2.187000000
O    -3.473000000     6.051000000     3.180000000
H    -3.827000000     6.926000000     3.337000000
H    -3.524000000     5.616000000     4.032000000
O    -3.474000000     4.544000000     0.600000000
H    -3.506000000     5.116000000     1.366000000
H    -2.541000000     4.458000000     0.403000000
O     1.722000000     5.669000000     2.513000000
H     1.458000000     4.944000000     1.946000000
H     1.001000000     6.295000000     2.453000000
O     0.514000000    -7.751000000    -1.014000000
H     0.450000000    -8.346000000    -1.761000000
H    -0.358000000    -7.364000000    -0.941000000
O     3.980000000     5.291000000     4.087000000
H     3.171000000     5.508000000     3.624000000
H     3.715000000     5.200000000     5.002000000
O     0.833000000    -5.009000000    -3.305000000
H     0.385000000    -4.415000000    -3.907000000
H     0.137000000    -5.347000000    -2.741000000
O    -4.916000000    -0.265000000    -2.322000000
H    -4.766000000    -1.139000000    -2.681000000
H    -4.118000000     0.220000000    -2.530000000
O    -3.969000000    -2.869000000    -2.955000000
H    -3.647000000    -3.231000000    -2.129000000
H    -3.219000000    -2.922000000    -3.548000000
O    -2.942000000     1.950000000     2.097000000
H    -3.013000000     2.732000000     1.550000000
H    -2.528000000     2.258000000     2.903000000
O    -5.913000000     1.508000000     2.574000000
H    -4.974000000     1.545000000     2.393000000
H    -6.207000000     0.704000000     2.146000000
O     1.951000000    -1.047000000    -3.567000000
H     1.459000000    -0.285000000    -3.261000000
H     1.327000000    -1.537000000    -4.102000000
O    -1.653000000     3.756000000    -2.086000000
H    -1.561000000     3.327000000    -1.236000000
H    -2.595000000     3.902000000    -2.180000000
O    -3.396000000    -0.753000000     1.808000000
H    -3.090000000     0.128000000     2.023000000
H    -2.595000000    -1.261000000     1.680000000
O     3.367000000     2.774000000    -0.356000000
H     3.922000000     2.278000000     0.245000000
H     2.941000000     3.429000000     0.197000000
O    -0.988000000     6.309000000     2.281000000
H    -1.862000000     6.154000000     2.637000000
H    -0.695000000     5.448000000     1.982000000
O    -3.050000000    -3.864000000    -0.393000000
H    -3.858000000    -4.259000000    -0.067000000
H    -2.793000000    -3.245000000     0.291000000
O    -7.578000000     1.069000000    -0.916000000
H    -6.741000000     1.532000000    -0.870000000
H    -7.444000000     0.278000000    -0.395000000
O     0.703000000    -3.169000000    -5.681000000
H     1.518000000    -3.597000000    -5.417000000
H     0.923000000    -2.718000000    -6.496000000
O     5.985000000    -1.549000000     1.888000000
H     6.060000000    -2.139000000     2.639000000
H     5.315000000    -1.950000000     1.335000000
O     2.225000000     7.629000000     0.281000000
H     1.439000000     7.108000000     0.118000000
H     1.995000000     8.182000000     1.028000000
O     3.924000000     0.720000000     5.615000000
H     3.306000000     1.223000000     5.086000000
H     3.389000000     0.341000000     6.313000000
O     2.617000000    -5.517000000    -0.170000000
H     2.621000000    -6.372000000    -0.600000000
H     1.883000000    -5.561000000     0.443000000
O     2.030000000     2.978000000     4.049000000
H     2.585000000     3.742000000     4.209000000
H     1.626000000     3.150000000     3.199000000
O     4.898000000    -6.367000000     1.275000000
H     4.161000000    -6.067000000     0.743000000
H     4.629000000    -6.190000000     2.177000000
O    -0.205000000     1.458000000    -3.213000000
H     0.705000000     1.551000000    -3.498000000
H    -0.414000000     2.297000000    -2.803000000
O     2.801000000     1.950000000    -3.019000000
H     2.963000000     2.438000000    -2.211000000
H     3.279000000     1.129000000    -2.902000000
O    -1.776000000     2.854000000     4.343000000
H    -1.215000000     3.389000000     3.782000000
H    -1.716000000     3.266000000     5.205000000
O     5.080000000     1.278000000     1.441000000
H     5.017000000     0.450000000     1.917000000
H     5.988000000     1.556000000     1.563000000
O     3.904000000    -2.196000000    -2.367000000
H     3.227000000    -1.641000000    -2.753000000
H     3.812000000    -3.036000000    -2.818000000
O    -1.944000000     7.827000000    -0.496000000
H    -1.243000000     7.176000000    -0.527000000
H    -1.495000000     8.655000000    -0.321000000
O    -0.453000000    -5.550000000     3.725000000
H    -0.011000000    -6.397000000     3.661000000
H     0.185000000    -4.922000000     3.385000000
O    -2.475000000     0.061000000    -3.575000000
H    -1.631000000     0.486000000    -3.730000000
H    -2.251000000    -0.847000000    -3.370000000
O    -6.179000000     3.756000000     0.885000000
H    -5.228000000     3.704000000     0.785000000
H    -6.407000000     2.985000000     1.404000000
O    -4.844000000     0.998000000     0.064000000
H    -4.354000000     0.371000000     0.595000000
H    -4.940000000     0.568000000    -0.786000000
O    -3.379000000     6.751000000    -2.631000000
H    -2.886000000     7.045000000    -1.865000000
H    -3.021000000     7.262000000    -3.356000000
O     0.264000000     0.870000000     5.772000000
H    -0.652000000     0.683000000     5.569000000
H     0.388000000     1.780000000     5.503000000
