161
-3010.04852
C     0.824000000    -0.037000000     1.147000000
H     1.525000000    -0.240000000     1.953000000
C     0.884000000    -0.866000000     0.038000000
H     1.664000000    -1.617000000    -0.051000000
C    -0.007000000    -0.751000000    -0.974000000
C     0.076000000    -1.779000000    -2.030000000
H    -0.806000000    -1.714000000    -2.670000000
H     1.005000000    -1.633000000    -2.584000000
H     0.253000000    -2.753000000    -1.568000000
C    -0.971000000     0.279000000    -0.998000000
H    -1.621000000     0.423000000    -1.856000000
C    -1.000000000     1.129000000     0.146000000
H    -1.650000000     1.999000000     0.199000000
C    -0.098000000     0.988000000     1.196000000
C    -0.100000000     1.882000000     2.421000000
O    -0.795000000     2.853000000     2.435000000
O     0.815000000     1.837000000     3.198000000
O    -2.521000000     2.569000000    -4.974000000
H    -1.609000000     2.700000000    -4.716000000
H    -2.549000000     1.674000000    -5.311000000
O     3.840000000    -0.666000000    -3.918000000
H     4.731000000    -0.750000000    -3.580000000
H     3.658000000    -1.512000000    -4.328000000
O    -1.049000000    -0.289000000    -5.025000000
H    -0.315000000     0.070000000    -4.527000000
H    -0.659000000    -0.972000000    -5.570000000
O    -2.105000000    -4.664000000    -4.832000000
H    -2.739000000    -5.246000000    -5.251000000
H    -1.255000000    -4.972000000    -5.145000000
O     0.812000000     1.749000000     8.350000000
H     0.541000000     1.838000000     7.437000000
H     1.275000000     2.564000000     8.544000000
O     4.430000000    -1.109000000     0.062000000
H     3.988000000    -1.466000000     0.832000000
H     3.731000000    -0.697000000    -0.446000000
O     1.423000000     3.508000000    -1.425000000
H     1.809000000     2.701000000    -1.085000000
H     0.680000000     3.214000000    -1.952000000
O     3.809000000    -5.188000000     0.014000000
H     3.595000000    -4.525000000    -0.642000000
H     3.151000000    -5.871000000    -0.112000000
O    -1.025000000    -2.782000000     3.978000000
H    -0.854000000    -2.070000000     4.595000000
H    -1.265000000    -2.340000000     3.164000000
O    -4.787000000     6.604000000     1.718000000
H    -5.086000000     6.165000000     0.921000000
H    -4.230000000     5.959000000     2.153000000
O     0.318000000     2.421000000    -4.522000000
H     1.080000000     2.180000000    -3.996000000
H     0.498000000     2.053000000    -5.387000000
O    -2.148000000     4.424000000     0.501000000
H    -3.105000000     4.416000000     0.519000000
H    -1.890000000     3.939000000     1.285000000
O     0.817000000     4.627000000     3.919000000
H    -0.129000000     4.569000000     3.784000000
H     1.182000000     3.962000000     3.335000000
O    -4.767000000     3.510000000     0.517000000
H    -5.665000000     3.671000000     0.225000000
H    -4.537000000     2.666000000     0.128000000
O     2.923000000     6.647000000     4.160000000
H     2.065000000     6.238000000     4.267000000
H     3.316000000     6.613000000     5.032000000
O    -3.491000000     1.997000000    -2.356000000
H    -3.066000000     2.145000000    -3.201000000
H    -4.413000000     1.857000000    -2.573000000
O    -5.055000000    -4.051000000    -1.520000000
H    -4.163000000    -4.361000000    -1.675000000
H    -5.413000000    -3.903000000    -2.395000000
O    -5.982000000    -3.149000000    -4.269000000
H    -5.130000000    -2.742000000    -4.424000000
H    -6.250000000    -3.479000000    -5.126000000
O    -2.167000000    -4.711000000    -1.121000000
H    -1.769000000    -5.022000000    -1.934000000
H    -1.758000000    -5.240000000    -0.436000000
O    -2.794000000     0.994000000     3.596000000
H    -2.320000000     1.824000000     3.635000000
H    -2.843000000     0.703000000     4.507000000
O    -5.335000000     1.998000000     2.921000000
H    -4.554000000     1.447000000     2.965000000
H    -5.746000000     1.766000000     2.088000000
O     1.774000000    -2.939000000    -5.328000000
H     1.891000000    -3.598000000    -6.013000000
H     1.012000000    -2.432000000    -5.612000000
O    -1.772000000     5.031000000    -2.365000000
H    -2.020000000     4.536000000    -1.584000000
H    -2.583000000     5.102000000    -2.870000000
O    -2.241000000    -1.180000000     2.126000000
H    -2.526000000    -0.407000000     2.613000000
H    -2.397000000    -0.955000000     1.208000000
O     3.285000000     1.992000000     1.984000000
H     3.971000000     2.356000000     2.544000000
H     2.471000000     2.174000000     2.454000000
O    -0.096000000     2.469000000     5.719000000
H    -0.238000000     3.384000000     5.477000000
H     0.399000000     2.101000000     4.987000000
O     0.098000000    -1.679000000    -7.035000000
H    -0.266000000    -2.468000000    -7.435000000
H     0.205000000    -1.068000000    -7.764000000
O    -4.235000000     4.773000000     3.682000000
H    -5.058000000     5.035000000     4.094000000
H    -4.475000000     4.042000000     3.112000000
O     0.331000000    -5.563000000    -5.557000000
H     0.608000000    -5.994000000    -4.749000000
H     1.147000000    -5.371000000    -6.018000000
O     3.492000000    -1.678000000     2.508000000
H     4.198000000    -1.566000000     3.144000000
H     2.707000000    -1.809000000     3.041000000
O     0.533000000     5.311000000     0.424000000
H     0.810000000     4.568000000    -0.114000000
H    -0.423000000     5.267000000     0.419000000
O    -1.943000000     4.801000000     5.411000000
H    -2.578000000     4.930000000     4.706000000
H    -2.335000000     5.235000000     6.169000000
O     3.942000000     2.784000000     4.788000000
H     4.189000000     3.677000000     5.026000000
H     3.709000000     2.371000000     5.620000000
O     1.948000000    -0.121000000     4.884000000
H     1.893000000     0.189000000     3.980000000
H     2.646000000     0.405000000     5.275000000
O     2.778000000    -3.204000000     4.668000000
H     3.519000000    -3.788000000     4.826000000
H     3.146000000    -2.324000000     4.742000000
O     7.107000000    -1.717000000    -0.240000000
H     6.186000000    -1.500000000    -0.095000000
H     7.118000000    -2.671000000    -0.318000000
O     2.566000000     1.601000000    -3.360000000
H     3.066000000     0.912000000    -3.799000000
H     2.689000000     1.427000000    -2.426000000
O     2.731000000     1.386000000    -0.626000000
H     3.231000000     1.668000000     0.140000000
H     1.920000000     1.028000000    -0.265000000
O    -2.872000000     2.008000000     6.431000000
H    -2.052000000     2.197000000     5.974000000
H    -2.824000000     2.528000000     7.233000000
O     6.170000000     2.459000000     3.016000000
H     5.415000000     2.454000000     3.604000000
H     6.888000000     2.109000000     3.544000000
O     2.888000000    -4.155000000    -2.335000000
H     2.674000000    -4.875000000    -2.929000000
H     2.632000000    -3.366000000    -2.814000000
O    -3.430000000    -2.037000000    -4.653000000
H    -2.756000000    -1.481000000    -4.262000000
H    -3.102000000    -2.929000000    -4.536000000
O     4.430000000    -3.245000000    -4.880000000
H     3.505000000    -3.156000000    -5.109000000
H     4.747000000    -3.956000000    -5.435000000
O    -4.394000000     0.698000000    -0.131000000
H    -3.627000000     0.752000000    -0.701000000
H    -4.642000000    -0.226000000    -0.150000000
O    -4.768000000    -1.980000000     0.294000000
H    -5.017000000    -2.237000000     1.181000000
H    -4.372000000    -2.767000000    -0.081000000
O     1.384000000    -2.632000000     6.867000000
H     1.148000000    -3.558000000     6.928000000
H     1.811000000    -2.549000000     6.014000000
O     2.795000000     6.505000000     1.331000000
H     1.919000000     6.214000000     1.079000000
H     2.758000000     6.578000000     2.285000000
O    -0.545000000    -0.364000000     6.037000000
H    -0.561000000     0.592000000     5.991000000
H     0.351000000    -0.600000000     5.796000000
