161
-3054.92748
C     0.375000000     0.578000000     1.341000000
H     0.799000000     0.882000000     2.295000000
C     1.109000000    -0.390000000     0.632000000
H     2.051000000    -0.730000000     1.056000000
C     0.674000000    -0.822000000    -0.638000000
C     1.384000000    -1.897000000    -1.402000000
H     2.132000000    -2.445000000    -0.826000000
H     0.788000000    -2.680000000    -1.875000000
H     1.961000000    -1.446000000    -2.212000000
C    -0.479000000    -0.317000000    -1.154000000
H    -0.862000000    -0.666000000    -2.109000000
C    -1.206000000     0.630000000    -0.402000000
H    -2.205000000     0.846000000    -0.771000000
C    -0.813000000     1.095000000     0.809000000
C    -1.717000000     2.097000000     1.590000000
O    -2.585000000     2.771000000     0.967000000
O    -1.398000000     2.488000000     2.699000000
O     2.894000000     4.566000000     5.680000000
H     2.833000000     4.047000000     6.483000000
H     2.369000000     4.082000000     5.043000000
O     4.623000000     1.399000000    -2.505000000
H     4.044000000     2.131000000    -2.717000000
H     5.496000000     1.790000000    -2.458000000
O    -1.344000000    -2.986000000     0.824000000
H    -0.932000000    -2.231000000     0.404000000
H    -0.621000000    -3.449000000     1.247000000
O    -2.423000000     0.688000000     7.277000000
H    -1.840000000     1.446000000     7.309000000
H    -2.787000000     0.702000000     6.391000000
O     4.522000000    -2.615000000     1.748000000
H     4.948000000    -3.277000000     2.293000000
H     4.935000000    -2.710000000     0.890000000
O     2.695000000     3.192000000     1.543000000
H     2.935000000     4.094000000     1.332000000
H     2.102000000     2.930000000     0.839000000
O    -2.312000000     3.294000000    -4.186000000
H    -1.736000000     2.956000000    -4.872000000
H    -1.722000000     3.738000000    -3.576000000
O    -2.516000000     5.093000000    -0.656000000
H    -2.615000000     5.743000000     0.039000000
H    -2.484000000     4.254000000    -0.196000000
O     4.261000000     1.486000000     2.970000000
H     4.944000000     1.038000000     2.470000000
H     3.944000000     2.172000000     2.382000000
O     5.088000000    -1.151000000    -3.106000000
H     4.622000000    -0.388000000    -2.763000000
H     5.900000000    -0.793000000    -3.466000000
O     2.447000000     0.215000000     4.762000000
H     2.039000000     0.981000000     5.166000000
H     3.199000000     0.566000000     4.286000000
O     2.605000000     3.188000000    -3.517000000
H     2.451000000     2.538000000    -4.203000000
H     3.103000000     3.881000000    -3.950000000
O    -5.457000000     2.573000000     4.167000000
H    -4.599000000     2.156000000     4.093000000
H    -5.267000000     3.459000000     4.475000000
O     0.959000000     3.279000000     3.991000000
H     1.446000000     3.316000000     3.168000000
H     0.126000000     2.869000000     3.758000000
O    -2.910000000    -1.873000000    -5.412000000
H    -2.167000000    -2.183000000    -4.895000000
H    -3.526000000    -2.606000000    -5.410000000
O     3.606000000    -5.220000000    -3.536000000
H     3.734000000    -5.852000000    -4.243000000
H     2.714000000    -5.382000000    -3.228000000
O    -6.869000000     1.064000000     2.490000000
H    -6.427000000     1.696000000     3.057000000
H    -6.430000000     1.153000000     1.644000000
O     1.187000000    -5.803000000    -2.275000000
H     0.555000000    -5.315000000    -2.803000000
H     1.111000000    -5.426000000    -1.399000000
O    -5.174000000    -0.591000000    -4.527000000
H    -5.905000000    -1.033000000    -4.958000000
H    -4.412000000    -0.808000000    -5.065000000
O    -3.992000000     0.831000000    -2.562000000
H    -3.322000000     1.026000000    -3.217000000
H    -4.692000000     0.403000000    -3.055000000
O    -4.659000000     6.094000000    -2.517000000
H    -3.820000000     5.927000000    -2.086000000
H    -4.573000000     5.681000000    -3.376000000
O    -4.353000000    -0.975000000     1.749000000
H    -4.222000000    -0.157000000     1.270000000
H    -3.480000000    -1.212000000     2.063000000
O    -0.793000000     1.673000000    -6.159000000
H    -0.355000000     0.865000000    -6.425000000
H    -1.721000000     1.511000000    -6.332000000
O    -0.211000000     4.259000000    -2.880000000
H     0.230000000     4.869000000    -2.288000000
H     0.497000000     3.863000000    -3.387000000
O    -2.126000000    -5.188000000    -0.615000000
H    -3.000000000    -5.461000000    -0.335000000
H    -2.073000000    -4.265000000    -0.368000000
O     6.132000000    -4.473000000    -2.756000000
H     6.405000000    -4.375000000    -3.668000000
H     5.199000000    -4.681000000    -2.806000000
O    -2.889000000     1.152000000     4.394000000
H    -2.559000000     0.267000000     4.238000000
H    -2.341000000     1.713000000     3.844000000
O    -1.299000000    -4.774000000    -3.788000000
H    -1.756000000    -4.985000000    -4.601000000
H    -1.908000000    -5.032000000    -3.096000000
O     2.834000000    -2.487000000     4.085000000
H     2.903000000    -1.648000000     4.539000000
H     3.425000000    -2.405000000     3.337000000
O     2.835000000    -1.839000000    -7.316000000
H     3.583000000    -1.299000000    -7.060000000
H     2.920000000    -2.632000000    -6.787000000
O     3.371000000    -2.883000000    -4.773000000
H     3.806000000    -2.126000000    -4.380000000
H     3.598000000    -3.614000000    -4.198000000
O    -0.195000000     4.973000000     5.901000000
H     0.181000000     4.595000000     5.106000000
H     0.074000000     4.377000000     6.600000000
O     1.438000000     2.599000000    -0.800000000
H     0.501000000     2.540000000    -0.985000000
H     1.860000000     2.307000000    -1.607000000
O     3.850000000    -6.880000000    -0.777000000
H     4.140000000    -7.697000000    -1.182000000
H     3.623000000    -6.314000000    -1.515000000
O    -1.437000000     6.777000000     1.660000000
H    -0.965000000     7.377000000     2.237000000
H    -1.699000000     6.053000000     2.230000000
O     5.640000000    -2.326000000    -0.700000000
H     5.478000000    -1.663000000    -1.371000000
H     5.983000000    -3.077000000    -1.184000000
O    -2.904000000     4.709000000     3.412000000
H    -2.563000000     3.874000000     3.091000000
H    -2.999000000     4.581000000     4.356000000
O    -1.578000000    -0.881000000     3.073000000
H    -1.111000000    -1.060000000     2.257000000
H    -1.631000000    -1.731000000     3.510000000
O    -4.730000000    -2.819000000    -0.302000000
H    -4.843000000    -3.419000000     0.435000000
H    -4.521000000    -1.978000000     0.103000000
O    -5.353000000     4.885000000     1.432000000
H    -4.526000000     4.688000000     1.871000000
H    -5.351000000     5.837000000     1.332000000
O     4.752000000    -0.139000000    -6.121000000
H     3.919000000     0.207000000    -5.801000000
H     5.043000000     0.501000000    -6.771000000
O     0.510000000    -2.951000000    -5.219000000
H    -0.097000000    -3.573000000    -4.819000000
H     1.293000000    -2.994000000    -4.671000000
O    -4.659000000     1.446000000     0.074000000
H    -3.989000000     1.991000000     0.487000000
H    -4.311000000     1.258000000    -0.798000000
O     0.530000000    -0.702000000    -6.933000000
H     1.467000000    -0.875000000    -7.023000000
H     0.164000000    -1.525000000    -6.610000000
O    -6.671000000     3.172000000    -0.022000000
H    -6.367000000     3.772000000     0.659000000
H    -5.924000000     2.598000000    -0.187000000
O     0.033000000     6.010000000    -0.750000000
H    -0.100000000     6.504000000     0.059000000
H    -0.846000000     5.726000000    -1.003000000
O     0.808000000    -3.705000000     2.253000000
H     0.829000000    -4.630000000     2.499000000
H     1.483000000    -3.298000000     2.796000000
O     5.244000000     1.420000000     0.257000000
H     5.199000000     0.485000000     0.055000000
H     4.467000000     1.793000000    -0.160000000
