161
-3074.91944
C    -0.642000000     0.295000000     1.298000000
H    -1.049000000     0.401000000     2.300000000
C    -0.449000000    -0.954000000     0.782000000
H    -0.840000000    -1.792000000     1.354000000
C     0.181000000    -1.150000000    -0.492000000
C     0.547000000    -2.522000000    -0.974000000
H     0.615000000    -3.308000000    -0.218000000
H    -0.223000000    -2.847000000    -1.676000000
H     1.510000000    -2.485000000    -1.488000000
C     0.445000000     0.021000000    -1.215000000
H     0.994000000    -0.152000000    -2.137000000
C     0.197000000     1.311000000    -0.727000000
H     0.404000000     2.172000000    -1.357000000
C    -0.260000000     1.448000000     0.592000000
C    -0.421000000     2.835000000     1.174000000
O     0.442000000     3.657000000     0.971000000
O    -1.445000000     3.072000000     1.820000000
O     0.985000000     0.019000000    -4.901000000
H     0.772000000     0.516000000    -5.691000000
H     1.291000000     0.678000000    -4.278000000
O     1.793000000    -5.443000000     0.933000000
H     1.514000000    -5.231000000     1.823000000
H     2.747000000    -5.501000000     0.988000000
O     2.065000000    -4.327000000    -2.973000000
H     1.562000000    -4.399000000    -2.161000000
H     1.468000000    -3.900000000    -3.587000000
O    -5.664000000     1.699000000    -1.104000000
H    -4.954000000     2.228000000    -0.739000000
H    -6.463000000     2.126000000    -0.794000000
O    -0.763000000     2.869000000     6.632000000
H    -0.106000000     3.477000000     6.970000000
H    -0.971000000     3.201000000     5.759000000
O    -0.599000000     8.123000000    -1.009000000
H    -1.427000000     8.242000000    -1.475000000
H    -0.358000000     7.213000000    -1.178000000
O     5.040000000     2.495000000     2.085000000
H     5.141000000     1.755000000     1.486000000
H     4.283000000     2.974000000     1.748000000
O    -2.068000000    -3.650000000     3.311000000
H    -2.213000000    -2.777000000     3.675000000
H    -2.908000000    -3.887000000     2.916000000
O    -3.675000000    -4.042000000     0.983000000
H    -3.689000000    -4.999000000     0.953000000
H    -3.414000000    -3.779000000     0.101000000
O    -2.328000000     2.067000000    -3.247000000
H    -3.018000000     2.076000000    -3.911000000
H    -2.571000000     1.352000000    -2.659000000
O     2.473000000    -0.970000000     1.547000000
H     1.828000000    -0.443000000     1.075000000
H     2.338000000    -0.745000000     2.468000000
O     0.940000000     4.602000000    -3.324000000
H     1.420000000     5.394000000    -3.567000000
H     0.437000000     4.377000000    -4.106000000
O    -0.040000000    -6.235000000    -1.055000000
H     0.567000000    -5.789000000    -0.464000000
H    -0.289000000    -7.031000000    -0.586000000
O     2.800000000     7.451000000     1.589000000
H     2.823000000     8.165000000     2.226000000
H     2.197000000     6.812000000     1.969000000
O    -1.435000000    -1.391000000    -3.869000000
H    -1.955000000    -1.109000000    -3.116000000
H    -0.733000000    -0.743000000    -3.930000000
O     2.497000000    -0.593000000     4.276000000
H     3.341000000    -0.801000000     4.678000000
H     1.891000000    -1.235000000     4.646000000
O     0.036000000     5.409000000    -1.014000000
H     0.532000000     4.999000000    -1.724000000
H     0.330000000     4.956000000    -0.224000000
O     2.713000000    -6.344000000    -4.897000000
H     3.205000000    -6.214000000    -5.708000000
H     2.504000000    -5.458000000    -4.600000000
O     3.072000000     4.081000000     0.903000000
H     3.177000000     5.011000000     1.106000000
H     2.129000000     3.929000000     0.955000000
O     2.145000000     2.088000000    -3.415000000
H     1.790000000     2.974000000    -3.343000000
H     2.762000000     2.017000000    -2.686000000
O    -3.778000000    -2.281000000    -4.939000000
H    -4.189000000    -2.480000000    -4.098000000
H    -2.899000000    -1.979000000    -4.711000000
O    -4.250000000     6.807000000     1.782000000
H    -3.378000000     6.463000000     1.588000000
H    -4.842000000     6.273000000     1.252000000
O    -3.426000000    -0.120000000    -1.954000000
H    -4.326000000    -0.083000000    -1.629000000
H    -3.125000000    -0.999000000    -1.724000000
O    -2.776000000     1.795000000     3.603000000
H    -2.358000000     2.376000000     2.967000000
H    -3.359000000     2.368000000     4.103000000
O    -2.671000000    -0.932000000     4.536000000
H    -2.053000000    -0.861000000     5.263000000
H    -2.769000000    -0.034000000     4.217000000
O    -4.426000000     0.022000000     1.429000000
H    -3.583000000     0.302000000     1.785000000
H    -4.525000000     0.526000000     0.621000000
O     2.891000000     4.489000000     4.110000000
H     2.618000000     3.600000000     4.337000000
H     3.847000000     4.455000000     4.116000000
O     0.487000000    -4.684000000     3.911000000
H     0.916000000    -4.023000000     4.455000000
H    -0.371000000    -4.309000000     3.712000000
O     4.216000000     2.988000000    -1.706000000
H     4.167000000     3.523000000    -0.914000000
H     4.663000000     3.544000000    -2.344000000
O     0.988000000     5.566000000     2.519000000
H     0.681000000     4.800000000     2.033000000
H     1.521000000     5.202000000     3.226000000
O     5.239000000     0.829000000    -3.436000000
H     5.126000000     0.060000000    -2.879000000
H     5.113000000     1.573000000    -2.847000000
O     1.530000000     1.972000000     4.340000000
H     1.786000000     1.064000000     4.178000000
H     0.881000000     1.916000000     5.042000000
O    -2.160000000    -5.531000000    -2.607000000
H    -1.504000000    -5.745000000    -1.942000000
H    -2.729000000    -6.299000000    -2.637000000
O    -2.697000000     4.766000000    -2.682000000
H    -2.759000000     3.843000000    -2.931000000
H    -1.768000000     4.903000000    -2.501000000
O    -2.273000000     5.478000000     0.696000000
H    -2.025000000     4.685000000     1.171000000
H    -1.646000000     5.531000000    -0.025000000
O    -1.707000000     4.838000000     4.041000000
H    -1.605000000     4.377000000     3.208000000
H    -2.601000000     4.639000000     4.317000000
O     4.219000000    -3.785000000     2.852000000
H     3.692000000    -3.264000000     2.247000000
H     5.107000000    -3.438000000     2.757000000
O    -3.035000000    -5.210000000    -5.447000000
H    -2.657000000    -5.100000000    -4.574000000
H    -2.346000000    -4.918000000    -6.044000000
O    -3.303000000    -2.970000000    -1.828000000
H    -2.845000000    -3.615000000    -2.368000000
H    -4.231000000    -3.147000000    -1.979000000
O     4.366000000    -1.265000000    -0.918000000
H     3.654000000    -1.089000000    -0.302000000
H     5.163000000    -1.095000000    -0.417000000
O     4.015000000    -2.481000000    -3.093000000
H     3.688000000    -3.357000000    -2.890000000
H     4.167000000    -2.077000000    -2.238000000
O     3.236000000    -7.290000000    -1.722000000
H     2.702000000    -6.593000000    -2.104000000
H     4.082000000    -6.877000000    -1.550000000
O    -3.880000000     3.103000000     0.398000000
H    -4.001000000     4.031000000     0.199000000
H    -3.059000000     3.068000000     0.890000000
O     3.339000000    -1.347000000    -5.574000000
H     3.607000000    -1.899000000    -4.840000000
H     2.679000000    -0.760000000    -5.203000000
O    -4.404000000     4.137000000     3.970000000
H    -4.865000000     3.926000000     3.158000000
H    -4.761000000     4.984000000     4.235000000
O    -6.138000000    -2.206000000     1.305000000
H    -5.289000000    -2.645000000     1.249000000
H    -5.953000000    -1.384000000     1.761000000
O    -0.595000000     3.031000000    -5.013000000
H    -1.151000000     2.704000000    -4.305000000
H    -0.587000000     2.324000000    -5.657000000
O     0.375000000    -3.446000000    -5.082000000
H     0.110000000    -2.538000000    -5.229000000
H     0.868000000    -3.682000000    -5.868000000
