161
-3048.89823
C     1.024000000    -0.522000000     0.953000000
H     1.698000000    -1.023000000     1.644000000
C    -0.365000000    -0.612000000     1.103000000
H    -0.884000000    -1.068000000     1.942000000
C    -1.268000000     0.042000000     0.300000000
C    -2.752000000    -0.094000000     0.346000000
H    -3.119000000     0.792000000    -0.176000000
H    -2.976000000    -1.005000000    -0.212000000
H    -3.230000000    -0.307000000     1.305000000
C    -0.694000000     0.718000000    -0.806000000
H    -1.318000000     1.152000000    -1.583000000
C     0.644000000     0.684000000    -1.055000000
H     1.096000000     1.144000000    -1.930000000
C     1.581000000     0.116000000    -0.188000000
C     3.067000000    -0.045000000    -0.511000000
O     3.643000000     0.627000000    -1.382000000
O     3.859000000    -0.605000000     0.257000000
O     4.003000000    -0.049000000    -4.716000000
H     4.110000000    -0.955000000    -5.004000000
H     4.493000000     0.001000000    -3.895000000
O    -0.868000000    -4.031000000    -3.360000000
H    -0.967000000    -4.983000000    -3.375000000
H    -0.981000000    -3.793000000    -2.440000000
O    -0.354000000     0.780000000     6.185000000
H    -0.649000000     1.677000000     6.337000000
H    -0.257000000     0.408000000     7.062000000
O     0.681000000     2.871000000     1.289000000
H     0.974000000     2.804000000     2.198000000
H     0.416000000     1.981000000     1.056000000
O    -1.029000000    -3.099000000     3.907000000
H    -1.637000000    -2.749000000     4.557000000
H    -1.590000000    -3.521000000     3.256000000
O    -3.606000000     1.087000000    -3.969000000
H    -2.829000000     0.529000000    -3.929000000
H    -3.261000000     1.979000000    -3.969000000
O     1.665000000     1.568000000     3.354000000
H     1.683000000     0.615000000     3.446000000
H     2.349000000     1.879000000     3.947000000
O     6.134000000    -3.914000000     3.603000000
H     5.376000000    -3.430000000     3.276000000
H     6.214000000    -4.662000000     3.010000000
O    -3.779000000    -2.830000000    -4.486000000
H    -4.177000000    -3.287000000    -5.227000000
H    -3.516000000    -3.528000000    -3.887000000
O    -3.247000000     4.219000000    -0.746000000
H    -2.511000000     4.707000000    -0.377000000
H    -3.820000000     4.048000000     0.001000000
O    -4.797000000     4.230000000     1.540000000
H    -4.068000000     3.649000000     1.755000000
H    -5.205000000     4.424000000     2.384000000
O    -0.511000000    -3.067000000    -0.680000000
H    -1.000000000    -3.297000000     0.110000000
H     0.081000000    -2.369000000    -0.401000000
O     5.673000000    -4.915000000    -2.169000000
H     5.362000000    -4.340000000    -1.470000000
H     5.704000000    -4.355000000    -2.944000000
O     5.561000000    -0.785000000    -2.259000000
H     6.273000000    -0.706000000    -1.623000000
H     4.816000000    -0.356000000    -1.837000000
O     1.237000000    -0.032000000    -5.834000000
H     1.200000000    -0.982000000    -5.941000000
H     2.118000000     0.138000000    -5.502000000
O    -5.790000000    -0.687000000     3.212000000
H    -6.227000000     0.003000000     2.711000000
H    -5.115000000    -0.228000000     3.712000000
O     0.558000000     3.840000000    -3.972000000
H     1.445000000     3.663000000    -4.285000000
H     0.287000000     3.027000000    -3.546000000
O     6.471000000     2.799000000    -2.307000000
H     5.959000000     2.905000000    -3.109000000
H     5.855000000     2.997000000    -1.602000000
O    -3.910000000     0.385000000     4.747000000
H    -3.243000000     0.984000000     4.412000000
H    -3.427000000    -0.219000000     5.311000000
O    -5.431000000     2.609000000    -1.296000000
H    -5.711000000     3.302000000    -1.893000000
H    -4.535000000     2.407000000    -1.567000000
O     1.074000000    -1.194000000     4.638000000
H     0.854000000    -0.477000000     5.233000000
H     0.227000000    -1.544000000     4.361000000
O    -2.656000000     3.917000000    -3.614000000
H    -2.982000000     4.281000000    -2.791000000
H    -1.714000000     4.083000000    -3.593000000
O    -2.888000000    -2.257000000     5.850000000
H    -3.697000000    -2.757000000     5.745000000
H    -2.825000000    -2.097000000     6.791000000
O     1.137000000     6.060000000    -2.616000000
H     2.079000000     6.038000000    -2.784000000
H     0.797000000     5.280000000    -3.055000000
O     8.727000000     1.161000000    -0.671000000
H     8.073000000     0.566000000    -0.304000000
H     8.268000000     1.997000000    -0.755000000
O     4.479000000     3.261000000    -0.601000000
H     4.125000000     3.622000000     0.211000000
H     4.164000000     2.357000000    -0.620000000
O     5.321000000     0.026000000     4.122000000
H     5.171000000    -0.175000000     5.045000000
H     6.273000000     0.052000000     4.033000000
O     2.116000000    -3.764000000     3.771000000
H     1.393000000    -3.326000000     4.218000000
H     2.523000000    -3.077000000     3.243000000
O    -6.630000000     1.253000000    -4.262000000
H    -5.722000000     1.518000000    -4.115000000
H    -6.566000000     0.461000000    -4.796000000
O     8.305000000    -1.660000000     0.860000000
H     7.549000000    -1.079000000     0.776000000
H     8.919000000    -1.177000000     1.414000000
O    -5.295000000    -1.496000000    -2.786000000
H    -4.921000000    -0.665000000    -2.494000000
H    -4.691000000    -1.806000000    -3.461000000
O    -5.265000000    -3.451000000     2.153000000
H    -6.019000000    -3.442000000     1.562000000
H    -5.125000000    -2.531000000     2.376000000
O    -7.339000000    -0.988000000    -0.728000000
H    -7.248000000    -1.717000000    -0.114000000
H    -6.549000000    -1.028000000    -1.267000000
O     0.327000000    -5.619000000     2.689000000
H    -0.117000000    -6.244000000     3.264000000
H     0.911000000    -5.132000000     3.271000000
O    -6.486000000     1.412000000     5.103000000
H    -6.719000000     1.460000000     6.030000000
H    -5.572000000     1.127000000     5.100000000
O    -6.409000000     1.208000000     1.051000000
H    -5.887000000     1.841000000     0.558000000
H    -7.068000000     0.903000000     0.427000000
O    -1.921000000     1.740000000     3.425000000
H    -1.636000000     2.070000000     2.573000000
H    -1.433000000     0.925000000     3.542000000
O     6.672000000     2.824000000     2.525000000
H     5.754000000     3.060000000     2.395000000
H     6.745000000     2.656000000     3.465000000
O     7.015000000    -3.896000000     0.723000000
H     7.563000000    -3.117000000     0.818000000
H     6.165000000    -3.559000000     0.441000000
O     6.294000000     0.362000000     0.740000000
H     6.387000000     1.158000000     1.263000000
H     5.354000000     0.184000000     0.740000000
O     2.138000000    -4.308000000    -1.287000000
H     2.073000000    -4.997000000    -0.625000000
H     1.406000000    -3.721000000    -1.093000000
O    -0.263000000     1.196000000    -3.950000000
H     0.285000000     0.941000000    -4.693000000
H    -0.876000000     0.468000000    -3.845000000
O     4.559000000    -3.223000000    -0.309000000
H     4.319000000    -2.297000000    -0.293000000
H     3.760000000    -3.672000000    -0.585000000
O    -2.501000000    -4.007000000     1.503000000
H    -2.527000000    -4.924000000     1.228000000
H    -3.421000000    -3.749000000     1.564000000
O     2.798000000     2.306000000    -3.823000000
H     3.369000000     1.959000000    -4.508000000
H     3.035000000     1.810000000    -3.039000000
O    -0.546000000     5.093000000     0.437000000
H    -0.105000000     4.279000000     0.681000000
H     0.085000000     5.549000000    -0.120000000
O     4.087000000    -2.019000000     2.710000000
H     4.022000000    -1.771000000     1.788000000
H     4.370000000    -1.219000000     3.153000000
O    -1.374000000    -1.162000000    -3.536000000
H    -1.822000000    -1.974000000    -3.770000000
H    -0.540000000    -1.448000000    -3.161000000
