161
-3061.58522
C     0.745000000     1.113000000     0.612000000
H     1.161000000     1.956000000     1.156000000
C     0.121000000     0.053000000     1.279000000
H     0.022000000     0.072000000     2.361000000
C    -0.476000000    -0.953000000     0.582000000
C    -1.204000000    -1.982000000     1.374000000
H    -1.045000000    -3.028000000     1.107000000
H    -0.962000000    -1.935000000     2.438000000
H    -2.285000000    -1.854000000     1.287000000
C    -0.439000000    -0.976000000    -0.802000000
H    -0.817000000    -1.824000000    -1.367000000
C     0.237000000     0.026000000    -1.484000000
H     0.249000000    -0.011000000    -2.570000000
C     0.663000000     1.149000000    -0.849000000
C     1.175000000     2.444000000    -1.546000000
O     1.589000000     2.295000000    -2.678000000
O     1.268000000     3.463000000    -0.904000000
O     4.661000000     2.005000000     2.484000000
H     4.438000000     2.892000000     2.200000000
H     4.642000000     1.485000000     1.682000000
O    -6.676000000    -2.196000000    -0.006000000
H    -7.154000000    -1.374000000    -0.119000000
H    -6.580000000    -2.289000000     0.941000000
O     3.003000000     5.572000000    -2.189000000
H     2.885000000     4.687000000    -1.845000000
H     2.784000000     5.499000000    -3.118000000
O     3.886000000     7.928000000    -1.235000000
H     3.464000000     7.113000000    -1.504000000
H     4.794000000     7.834000000    -1.522000000
O     0.026000000     1.801000000     4.618000000
H    -0.894000000     1.587000000     4.464000000
H     0.066000000     2.038000000     5.544000000
O     3.063000000    -1.313000000     0.611000000
H     3.161000000    -1.764000000    -0.227000000
H     2.300000000    -0.747000000     0.491000000
O     3.428000000     2.830000000    -7.431000000
H     3.344000000     2.670000000    -6.491000000
H     3.451000000     1.956000000    -7.822000000
O    -3.126000000    -4.670000000     4.313000000
H    -2.239000000    -4.932000000     4.065000000
H    -3.000000000    -3.917000000     4.890000000
O    -1.836000000    -6.607000000    -1.278000000
H    -1.717000000    -6.549000000    -0.330000000
H    -2.668000000    -7.068000000    -1.387000000
O    -0.939000000     2.968000000    -3.929000000
H    -1.130000000     2.539000000    -4.763000000
H    -0.070000000     2.647000000    -3.688000000
O    -4.718000000    -1.585000000     4.664000000
H    -4.482000000    -0.687000000     4.434000000
H    -3.882000000    -2.050000000     4.704000000
O     0.402000000    -5.482000000    -2.538000000
H     0.448000000    -5.977000000    -3.356000000
H    -0.460000000    -5.694000000    -2.179000000
O     2.672000000     4.763000000    -5.203000000
H     3.020000000     4.770000000    -6.095000000
H     2.306000000     3.884000000    -5.096000000
O    -3.310000000    -4.027000000    -2.379000000
H    -2.642000000    -4.209000000    -1.718000000
H    -3.882000000    -3.379000000    -1.968000000
O     1.885000000     7.158000000     0.635000000
H     1.513000000     6.520000000     0.026000000
H     2.696000000     7.446000000     0.216000000
O     4.371000000     2.733000000    -2.187000000
H     3.480000000     2.386000000    -2.216000000
H     4.927000000     1.985000000    -2.403000000
O     3.598000000    -0.694000000    -4.402000000
H     3.306000000    -1.411000000    -4.965000000
H     3.238000000     0.094000000    -4.810000000
O     6.541000000     2.810000000    -0.432000000
H     6.474000000     3.238000000     0.422000000
H     5.686000000     2.954000000    -0.839000000
O     5.542000000     4.984000000     1.283000000
H     4.785000000     4.882000000     0.706000000
H     5.191000000     5.406000000     2.067000000
O    -4.567000000    -0.186000000    -2.495000000
H    -4.290000000     0.658000000    -2.139000000
H    -4.343000000    -0.819000000    -1.813000000
O     5.177000000     0.264000000     0.528000000
H     4.480000000    -0.391000000     0.568000000
H     5.300000000     0.424000000    -0.408000000
O    -4.101000000    -5.236000000     1.093000000
H    -4.577000000    -4.804000000     1.801000000
H    -3.182000000    -5.180000000     1.353000000
O    -1.473000000     4.534000000     1.312000000
H    -0.981000000     4.500000000     0.492000000
H    -0.949000000     5.097000000     1.882000000
O    -3.692000000     0.917000000     3.714000000
H    -3.716000000     1.657000000     3.107000000
H    -4.115000000     1.245000000     4.508000000
O    -4.396000000    -0.192000000     1.312000000
H    -4.016000000     0.057000000     2.155000000
H    -5.188000000    -0.678000000     1.541000000
O    -0.375000000    -5.415000000     3.785000000
H     0.575000000    -5.482000000     3.686000000
H    -0.512000000    -5.340000000     4.729000000
O     5.450000000    -0.185000000    -2.327000000
H     4.680000000    -0.572000000    -2.744000000
H     6.181000000    -0.728000000    -2.625000000
O    -3.953000000    -2.291000000    -0.507000000
H    -4.818000000    -2.633000000    -0.281000000
H    -3.862000000    -1.499000000     0.022000000
O     2.613000000     0.907000000     4.153000000
H     1.733000000     1.284000000     4.149000000
H     2.936000000     1.042000000     3.262000000
O     5.499000000     3.533000000    -4.681000000
H     5.999000000     2.717000000    -4.725000000
H     4.882000000     3.397000000    -3.962000000
O     3.032000000     4.015000000     0.819000000
H     2.462000000     3.736000000     0.103000000
H     2.454000000     4.063000000     1.581000000
O     1.741000000     4.420000000     3.188000000
H     1.283000000     3.902000000     3.850000000
H     1.221000000     5.219000000     3.107000000
O     0.680000000    -2.874000000    -3.471000000
H     0.447000000    -3.698000000    -3.042000000
H    -0.003000000    -2.745000000    -4.129000000
O     2.036000000     1.643000000    -5.060000000
H     1.208000000     1.196000000    -5.234000000
H     1.992000000     1.878000000    -4.133000000
O    -1.813000000     5.739000000    -3.757000000
H    -1.148000000     6.152000000    -4.307000000
H    -1.739000000     4.805000000    -3.951000000
O    -6.366000000    -2.508000000     2.726000000
H    -5.641000000    -2.263000000     3.301000000
H    -7.099000000    -2.667000000     3.320000000
O    -0.893000000     5.453000000    -1.245000000
H    -1.306000000     5.632000000    -2.090000000
H    -0.131000000     4.916000000    -1.461000000
O     0.764000000    -1.936000000     4.891000000
H     1.009000000    -1.125000000     4.445000000
H     1.532000000    -2.500000000     4.800000000
O    -2.074000000    -2.318000000     5.389000000
H    -2.104000000    -2.154000000     6.332000000
H    -1.142000000    -2.286000000     5.171000000
O    -0.235000000    -2.065000000    -6.141000000
H     0.191000000    -2.631000000    -6.784000000
H    -0.973000000    -2.582000000    -5.818000000
O     3.909000000     5.764000000     3.667000000
H     3.545000000     6.648000000     3.630000000
H     3.143000000     5.189000000     3.659000000
O     2.780000000    -2.510000000    -1.682000000
H     2.052000000    -2.183000000    -2.210000000
H     2.997000000    -3.357000000    -2.071000000
O    -1.893000000    -3.922000000    -4.824000000
H    -2.114000000    -4.694000000    -5.346000000
H    -2.420000000    -4.012000000    -4.030000000
O     1.039000000    -4.511000000    -0.118000000
H     1.658000000    -3.814000000     0.101000000
H     0.985000000    -4.492000000    -1.073000000
O    -0.797000000    -6.158000000     1.280000000
H    -0.797000000    -5.837000000     2.182000000
H    -0.182000000    -5.586000000     0.822000000
O    -3.162000000     0.224000000    -5.127000000
H    -4.100000000     0.173000000    -5.306000000
H    -3.106000000     0.397000000    -4.187000000
O    -3.381000000     2.250000000    -2.861000000
H    -3.934000000     2.887000000    -3.313000000
H    -2.518000000     2.355000000    -3.261000000
O    -0.475000000     0.724000000    -5.788000000
H    -1.419000000     0.885000000    -5.795000000
H    -0.395000000    -0.228000000    -5.725000000
