161
-3065.70226
C     0.805000000     1.026000000     0.618000000
H     1.268000000     1.867000000     1.129000000
C    -0.051000000     0.188000000     1.359000000
H    -0.224000000     0.362000000     2.418000000
C    -0.720000000    -0.766000000     0.569000000
C    -1.803000000    -1.661000000     1.252000000
H    -1.490000000    -2.703000000     1.347000000
H    -2.158000000    -1.329000000     2.230000000
H    -2.667000000    -1.681000000     0.583000000
C    -0.497000000    -0.893000000    -0.813000000
H    -1.079000000    -1.625000000    -1.368000000
C     0.388000000    -0.036000000    -1.447000000
H     0.634000000    -0.189000000    -2.495000000
C     1.052000000     0.904000000    -0.756000000
C     1.950000000     1.897000000    -1.381000000
O     2.202000000     1.847000000    -2.583000000
O     2.395000000     2.784000000    -0.664000000
O     4.523000000     4.685000000     3.399000000
H     3.680000000     4.721000000     2.946000000
H     5.076000000     4.146000000     2.833000000
O    -5.067000000     0.864000000     2.733000000
H    -5.695000000     1.071000000     3.425000000
H    -4.988000000     1.675000000     2.230000000
O    -2.370000000     3.651000000     5.807000000
H    -2.039000000     3.586000000     4.911000000
H    -2.812000000     4.499000000     5.838000000
O     4.336000000     5.761000000    -3.719000000
H     3.524000000     5.829000000    -4.221000000
H     4.233000000     4.960000000    -3.205000000
O     4.326000000     1.399000000     0.403000000
H     4.030000000     1.147000000     1.278000000
H     3.650000000     1.998000000     0.085000000
O    -1.942000000    -1.585000000     6.141000000
H    -2.808000000    -1.636000000     5.736000000
H    -1.604000000    -2.480000000     6.099000000
O    -2.945000000    -3.589000000     4.113000000
H    -2.083000000    -3.195000000     3.978000000
H    -3.539000000    -2.843000000     4.199000000
O    -0.447000000     7.239000000    -1.030000000
H     0.379000000     6.839000000    -1.302000000
H    -0.305000000     7.484000000    -0.116000000
O    -1.869000000    -4.566000000    -1.444000000
H    -1.708000000    -4.830000000    -0.538000000
H    -2.778000000    -4.268000000    -1.449000000
O     2.547000000     7.370000000    -1.172000000
H     2.187000000     6.573000000    -1.560000000
H     3.402000000     7.107000000    -0.833000000
O    -0.871000000     2.843000000    -2.845000000
H    -1.123000000     3.698000000    -3.195000000
H    -0.196000000     2.529000000    -3.446000000
O    -0.792000000     0.870000000     4.935000000
H    -1.443000000     1.527000000     4.688000000
H    -1.305000000     0.152000000     5.306000000
O     1.289000000    -3.539000000    -1.320000000
H     0.823000000    -3.825000000    -0.535000000
H     0.625000000    -3.549000000    -2.010000000
O     2.191000000     4.696000000    -7.072000000
H     2.340000000     5.495000000    -6.566000000
H     2.285000000     3.988000000    -6.436000000
O    -2.752000000     1.481000000     0.412000000
H    -3.112000000     1.536000000    -0.474000000
H    -1.844000000     1.207000000     0.285000000
O     3.648000000    -4.118000000    -2.905000000
H     2.860000000    -4.215000000    -2.370000000
H     3.581000000    -3.237000000    -3.274000000
O    -4.584000000    -3.537000000    -0.803000000
H    -4.984000000    -4.230000000    -0.277000000
H    -4.811000000    -2.728000000    -0.346000000
O     4.860000000     2.915000000    -2.857000000
H     3.975000000     2.980000000    -2.500000000
H     5.111000000     2.003000000    -2.710000000
O     3.277000000    -0.818000000    -3.413000000
H     3.167000000     0.133000000    -3.387000000
H     3.921000000    -0.965000000    -4.105000000
O     7.156000000     4.414000000    -2.021000000
H     6.829000000     5.216000000    -1.613000000
H     6.383000000     3.857000000    -2.109000000
O     4.339000000     6.556000000     0.455000000
H     3.552000000     6.051000000     0.659000000
H     4.547000000     7.014000000     1.269000000
O    -4.338000000    -1.447000000    -2.984000000
H    -4.059000000    -0.810000000    -2.326000000
H    -4.322000000    -2.287000000    -2.526000000
O     6.089000000     2.676000000     2.210000000
H     7.009000000     2.424000000     2.126000000
H     5.638000000     2.161000000     1.541000000
O    -3.396000000    -5.733000000     1.550000000
H    -3.061000000    -5.034000000     2.111000000
H    -4.262000000    -5.931000000     1.906000000
O    -4.898000000     3.153000000     1.353000000
H    -4.111000000     2.687000000     1.071000000
H    -4.804000000     4.029000000     0.978000000
O    -0.183000000     4.671000000     2.025000000
H    -0.539000000     4.454000000     1.163000000
H    -0.826000000     5.270000000     2.405000000
O    -5.024000000    -0.957000000     0.745000000
H    -5.181000000    -0.197000000     1.306000000
H    -4.073000000    -0.979000000     0.633000000
O     5.599000000     0.385000000    -2.308000000
H     5.608000000    -0.519000000    -2.621000000
H     5.109000000     0.349000000    -1.486000000
O    -7.288000000    -0.394000000    -0.596000000
H    -7.013000000     0.422000000    -1.014000000
H    -6.524000000    -0.675000000    -0.092000000
O     6.051000000     1.662000000    -5.183000000
H     5.356000000     1.373000000    -5.774000000
H     5.595000000     2.150000000    -4.497000000
O     2.524000000     4.551000000     1.613000000
H     2.515000000     3.867000000     0.942000000
H     1.606000000     4.650000000     1.865000000
O     1.405000000     2.401000000     4.574000000
H     1.196000000     3.125000000     5.164000000
H     0.799000000     1.704000000     4.826000000
O     1.900000000     2.535000000    -5.120000000
H     1.192000000     1.970000000    -5.429000000
H     2.171000000     2.147000000    -4.288000000
O    -1.426000000     4.502000000    -0.312000000
H    -1.211000000     5.392000000    -0.591000000
H    -1.411000000     3.987000000    -1.119000000
O    -4.383000000    -1.365000000     4.819000000
H    -4.374000000    -0.652000000     4.180000000
H    -5.125000000    -1.165000000     5.390000000
O     1.512000000     5.151000000    -2.368000000
H     1.751000000     4.253000000    -2.141000000
H     1.154000000     5.088000000    -3.254000000
O    -1.871000000    -7.812000000     2.938000000
H    -2.300000000    -7.051000000     2.547000000
H    -1.224000000    -7.440000000     3.538000000
O     3.478000000     1.096000000     3.131000000
H     2.762000000     1.643000000     3.456000000
H     4.244000000     1.389000000     3.624000000
O    -0.127000000    -2.684000000     4.010000000
H     0.262000000    -1.889000000     3.648000000
H     0.381000000    -2.860000000     4.803000000
O    -0.874000000    -4.855000000    -4.747000000
H    -1.410000000    -5.517000000    -5.183000000
H    -0.707000000    -5.218000000    -3.877000000
O     3.423000000    -1.760000000    -0.721000000
H     3.512000000    -1.309000000    -1.560000000
H     2.666000000    -2.335000000    -0.836000000
O    -2.307000000    -2.440000000    -4.837000000
H    -1.924000000    -3.311000000    -4.943000000
H    -2.618000000    -2.423000000    -3.932000000
O     2.689000000    -1.453000000     2.165000000
H     2.914000000    -1.410000000     1.235000000
H     2.813000000    -0.558000000     2.482000000
O     1.021000000    -3.790000000     1.685000000
H     0.352000000    -3.470000000     2.290000000
H     1.595000000    -3.038000000     1.542000000
O     1.168000000    -6.486000000     1.653000000
H     2.100000000    -6.669000000     1.528000000
H     1.123000000    -5.534000000     1.749000000
O    -2.248000000     2.433000000     3.053000000
H    -1.572000000     3.022000000     2.719000000
H    -2.530000000     1.934000000     2.287000000
O    -3.091000000     1.541000000    -2.299000000
H    -3.656000000     1.814000000    -3.022000000
H    -2.242000000     1.934000000    -2.496000000
O    -0.630000000     0.897000000    -5.270000000
H    -1.374000000     1.344000000    -5.673000000
H    -0.568000000     0.065000000    -5.739000000
