161
-3035.63325
C     0.780000000     1.266000000     0.263000000
H     1.301000000     2.210000000     0.404000000
C     0.315000000     0.388000000     1.235000000
H     0.550000000     0.594000000     2.276000000
C    -0.453000000    -0.706000000     0.872000000
C    -0.759000000    -1.688000000     1.988000000
H    -1.393000000    -2.485000000     1.596000000
H     0.068000000    -2.239000000     2.441000000
H    -1.446000000    -1.207000000     2.687000000
C    -0.696000000    -1.023000000    -0.482000000
H    -1.286000000    -1.894000000    -0.758000000
C    -0.286000000    -0.090000000    -1.387000000
H    -0.451000000    -0.356000000    -2.428000000
C     0.480000000     0.984000000    -1.095000000
C     1.024000000     1.818000000    -2.239000000
O     0.790000000     1.484000000    -3.363000000
O     1.469000000     2.952000000    -2.006000000
O     4.397000000     4.106000000     1.030000000
H     4.873000000     3.282000000     0.932000000
H     5.052000000     4.783000000     0.858000000
O     3.257000000     1.375000000    -4.674000000
H     3.848000000     1.938000000    -4.174000000
H     2.470000000     1.314000000    -4.131000000
O    -3.607000000     0.813000000    -1.660000000
H    -3.601000000    -0.143000000    -1.615000000
H    -3.312000000     1.095000000    -0.795000000
O    -0.592000000    -3.523000000    -6.322000000
H    -1.094000000    -4.337000000    -6.362000000
H    -1.148000000    -2.923000000    -5.825000000
O     2.625000000    -3.278000000    -3.139000000
H     3.018000000    -2.598000000    -3.686000000
H     2.640000000    -2.912000000    -2.255000000
O     0.253000000    -0.985000000     6.285000000
H    -0.440000000    -1.630000000     6.145000000
H     1.060000000    -1.448000000     6.058000000
O     4.039000000     4.016000000    -2.944000000
H     3.166000000     3.881000000    -2.575000000
H     4.348000000     4.826000000    -2.539000000
O     0.370000000     5.303000000    -1.253000000
H     0.976000000     5.758000000    -0.668000000
H     0.768000000     4.442000000    -1.386000000
O     4.027000000    -3.178000000     1.487000000
H     3.320000000    -2.984000000     0.871000000
H     3.611000000    -3.143000000     2.348000000
O    -2.599000000    -4.658000000     2.795000000
H    -3.474000000    -4.814000000     2.439000000
H    -2.014000000    -4.762000000     2.045000000
O    -2.797000000    -3.421000000    -2.565000000
H    -2.423000000    -4.149000000    -2.068000000
H    -3.316000000    -2.935000000    -1.923000000
O    -3.625000000     0.338000000     3.997000000
H    -3.572000000    -0.604000000     3.836000000
H    -2.922000000     0.514000000     4.623000000
O    -2.096000000     5.682000000    -2.178000000
H    -1.261000000     5.622000000    -1.714000000
H    -2.733000000     5.898000000    -1.497000000
O    -2.381000000    -6.184000000    -2.114000000
H    -2.141000000    -6.173000000    -1.187000000
H    -1.548000000    -6.269000000    -2.576000000
O     2.696000000     2.053000000     3.419000000
H     2.874000000     1.285000000     2.878000000
H     3.562000000     2.383000000     3.659000000
O     0.686000000     3.930000000    -4.628000000
H     0.888000000     3.074000000    -4.251000000
H     0.960000000     4.558000000    -3.960000000
O     0.169000000     0.549000000    -5.939000000
H     0.236000000     0.973000000    -5.084000000
H     0.478000000     1.210000000    -6.559000000
O     2.089000000    -2.151000000    -0.513000000
H     1.873000000    -1.223000000    -0.426000000
H     1.317000000    -2.609000000    -0.180000000
O    -5.094000000    -2.092000000     1.577000000
H    -6.049000000    -2.147000000     1.589000000
H    -4.851000000    -1.947000000     2.491000000
O    -2.502000000     3.216000000    -4.675000000
H    -1.602000000     3.482000000    -4.490000000
H    -2.889000000     3.971000000    -5.117000000
O     3.558000000     4.832000000    -5.795000000
H     4.382000000     4.387000000    -5.996000000
H     3.769000000     5.406000000    -5.059000000
O     1.371000000     4.235000000     3.077000000
H     1.916000000     3.458000000     2.956000000
H     1.688000000     4.626000000     3.891000000
O    -2.740000000     0.599000000    -4.351000000
H    -2.605000000     1.423000000    -4.818000000
H    -2.681000000     0.835000000    -3.425000000
O    -0.023000000    -4.997000000     4.000000000
H    -0.055000000    -5.836000000     3.540000000
H    -0.933000000    -4.700000000     4.020000000
O    -1.528000000     3.255000000     2.756000000
H    -1.587000000     2.979000000     3.671000000
H    -0.589000000     3.334000000     2.590000000
O     6.397000000     2.953000000    -2.078000000
H     5.680000000     3.326000000    -2.591000000
H     7.168000000     3.455000000    -2.344000000
O     2.153000000    -3.364000000     3.551000000
H     2.155000000    -2.983000000     4.430000000
H     1.349000000    -3.882000000     3.516000000
O     2.298000000    -2.697000000     6.135000000
H     2.177000000    -3.333000000     6.840000000
H     2.973000000    -2.102000000     6.461000000
O     1.940000000     2.435000000    -7.126000000
H     2.302000000     2.403000000    -6.241000000
H     2.054000000     3.346000000    -7.398000000
O     1.092000000    -4.524000000     0.523000000
H     1.933000000    -4.905000000     0.271000000
H     1.178000000    -4.351000000     1.460000000
O     0.252000000     1.578000000     4.812000000
H     0.416000000     0.775000000     5.307000000
H     1.106000000     1.814000000     4.449000000
O     3.783000000    -0.323000000    -6.719000000
H     3.130000000    -0.974000000    -6.461000000
H     3.434000000     0.507000000    -6.395000000
O    -2.585000000    -2.176000000    -4.976000000
H    -2.516000000    -2.743000000    -4.208000000
H    -2.658000000    -1.292000000    -4.615000000
O     2.203000000     5.693000000     0.896000000
H     1.795000000     5.251000000     1.640000000
H     2.933000000     5.125000000     0.650000000
O    -4.071000000    -2.438000000     3.885000000
H    -4.510000000    -3.172000000     4.315000000
H    -3.141000000    -2.660000000     3.921000000
O     4.440000000    -1.157000000    -4.090000000
H     4.494000000    -1.387000000    -5.018000000
H     4.141000000    -0.248000000    -4.086000000
O     0.208000000    -5.197000000    -3.527000000
H     1.036000000    -5.082000000    -3.059000000
H     0.311000000    -4.681000000    -4.327000000
O    -1.488000000    -6.105000000     0.433000000
H    -1.211000000    -6.995000000     0.650000000
H    -0.674000000    -5.643000000     0.231000000
O    -0.270000000     3.721000000     6.457000000
H    -0.066000000     2.855000000     6.102000000
H    -1.133000000     3.929000000     6.100000000
O     1.272000000     7.342000000    -3.220000000
H     0.853000000     8.072000000    -2.764000000
H     1.077000000     6.577000000    -2.679000000
O     1.679000000    -1.864000000    -5.957000000
H     0.921000000    -2.382000000    -6.226000000
H     1.304000000    -1.095000000    -5.529000000
O    -0.036000000     4.241000000    -7.466000000
H     0.327000000     4.179000000    -6.583000000
H     0.627000000     4.718000000    -7.965000000
O    -4.113000000    -1.713000000    -0.835000000
H    -4.876000000    -2.130000000    -1.235000000
H    -4.311000000    -1.699000000     0.101000000
O    -5.232000000     1.824000000     2.472000000
H    -4.557000000     1.822000000     1.793000000
H    -4.848000000     1.327000000     3.194000000
O    -2.687000000     2.037000000     0.708000000
H    -2.304000000     2.646000000     1.339000000
H    -1.958000000     1.476000000     0.444000000
O     1.313000000    -5.608000000     6.298000000
H     0.876000000    -5.226000000     5.537000000
H     2.191000000    -5.826000000     5.986000000
O     4.098000000    -0.384000000     2.257000000
H     4.196000000    -1.230000000     1.820000000
H     4.405000000    -0.540000000     3.151000000
O    -2.322000000     0.625000000     7.049000000
H    -3.111000000     0.122000000     7.252000000
H    -1.656000000    -0.037000000     6.869000000
