161
-3046.79394
C     0.800000000     1.270000000     0.145000000
H     1.445000000     2.116000000     0.366000000
C     0.027000000     0.659000000     1.096000000
H     0.048000000     1.159000000     2.061000000
C    -0.729000000    -0.481000000     0.875000000
C    -1.580000000    -1.064000000     1.980000000
H    -1.745000000    -2.129000000     1.804000000
H    -1.083000000    -1.050000000     2.952000000
H    -2.547000000    -0.561000000     2.042000000
C    -0.733000000    -1.081000000    -0.368000000
H    -1.198000000    -2.060000000    -0.457000000
C     0.077000000    -0.520000000    -1.396000000
H     0.268000000    -0.974000000    -2.365000000
C     0.908000000     0.623000000    -1.146000000
C     1.843000000     1.197000000    -2.232000000
O     1.990000000     0.577000000    -3.245000000
O     2.205000000     2.324000000    -2.110000000
O    -4.367000000    -2.500000000     5.773000000
H    -4.304000000    -3.201000000     6.422000000
H    -4.024000000    -2.887000000     4.968000000
O     5.651000000     5.133000000    -2.129000000
H     6.219000000     4.384000000    -1.949000000
H     4.996000000     4.796000000    -2.740000000
O    -0.002000000    -3.927000000    -4.542000000
H    -0.156000000    -4.830000000    -4.264000000
H    -0.439000000    -3.394000000    -3.878000000
O    -0.367000000    -5.072000000    -0.153000000
H    -0.923000000    -4.784000000    -0.876000000
H    -0.890000000    -5.730000000     0.305000000
O    -2.753000000    -0.660000000     7.563000000
H    -3.370000000    -1.158000000     7.026000000
H    -2.476000000    -1.276000000     8.242000000
O     4.750000000    -0.529000000     0.129000000
H     4.218000000    -1.159000000    -0.357000000
H     4.241000000     0.281000000     0.109000000
O     4.323000000     2.235000000    -0.081000000
H     4.072000000     2.818000000     0.636000000
H     3.664000000     2.391000000    -0.757000000
O     3.434000000    -3.169000000    -5.763000000
H     4.374000000    -3.159000000    -5.942000000
H     3.156000000    -4.058000000    -5.985000000
O    -0.840000000    -3.215000000     4.806000000
H    -0.072000000    -3.596000000     4.382000000
H    -0.547000000    -2.352000000     5.102000000
O    -3.881000000    -1.994000000    -1.570000000
H    -3.499000000    -2.649000000    -0.986000000
H    -3.286000000    -1.964000000    -2.319000000
O     2.770000000    -2.317000000    -1.070000000
H     2.525000000    -2.431000000    -1.988000000
H     1.948000000    -2.104000000    -0.627000000
O     2.307000000     4.871000000    -5.331000000
H     1.876000000     4.106000000    -4.951000000
H     1.675000000     5.581000000    -5.222000000
O    -1.051000000     3.491000000     0.723000000
H    -1.737000000     2.826000000     0.797000000
H    -0.929000000     3.604000000    -0.220000000
O    -4.155000000     0.862000000    -2.113000000
H    -3.897000000    -0.009000000    -1.811000000
H    -3.462000000     1.119000000    -2.721000000
O    -1.876000000    -4.679000000    -2.356000000
H    -2.587000000    -5.318000000    -2.302000000
H    -2.136000000    -4.090000000    -3.064000000
O     2.363000000    -2.936000000     2.713000000
H     1.862000000    -2.145000000     2.909000000
H     3.256000000    -2.623000000     2.565000000
O     0.972000000     4.717000000    -1.531000000
H     0.213000000     4.848000000    -2.099000000
H     1.339000000     3.879000000    -1.811000000
O     6.014000000     1.546000000    -5.287000000
H     5.351000000     2.195000000    -5.053000000
H     5.527000000     0.726000000    -5.373000000
O     0.212000000    -0.830000000    -4.902000000
H     0.882000000    -0.295000000    -4.476000000
H     0.619000000    -1.691000000    -4.998000000
O    -1.302000000     0.850000000    -7.617000000
H    -1.009000000     0.964000000    -8.521000000
H    -0.537000000     0.499000000    -7.160000000
O    -6.016000000    -3.939000000     3.546000000
H    -6.043000000    -4.873000000     3.754000000
H    -5.089000000    -3.754000000     3.398000000
O    -6.435000000     1.730000000     2.545000000
H    -6.218000000     1.561000000     1.628000000
H    -6.455000000     0.863000000     2.951000000
O    -6.347000000    -1.742000000    -2.751000000
H    -6.437000000    -0.845000000    -2.428000000
H    -5.472000000    -2.011000000    -2.471000000
O     3.176000000     4.227000000     1.795000000
H     2.495000000     3.836000000     2.343000000
H     2.749000000     4.977000000     1.382000000
O    -3.962000000    -4.287000000     0.662000000
H    -4.849000000    -4.614000000     0.510000000
H    -4.083000000    -3.520000000     1.222000000
O     0.579000000     1.967000000     5.637000000
H     0.199000000     2.518000000     4.952000000
H     1.439000000     2.354000000     5.805000000
O     0.182000000     3.254000000     3.250000000
H     0.329000000     4.187000000     3.408000000
H    -0.252000000     3.222000000     2.398000000
O    -3.169000000    -3.805000000     3.529000000
H    -2.389000000    -3.456000000     3.959000000
H    -2.830000000    -4.297000000     2.781000000
O     6.034000000     0.782000000    -2.488000000
H     5.737000000     0.879000000    -3.393000000
H     5.369000000     0.230000000    -2.076000000
O    -1.496000000     2.310000000    -4.127000000
H    -1.736000000     3.029000000    -3.542000000
H    -2.213000000     2.265000000    -4.759000000
O    -2.531000000    -6.474000000     0.848000000
H    -2.836000000    -5.577000000     0.706000000
H    -3.198000000    -7.022000000     0.435000000
O     1.894000000     6.471000000     0.325000000
H     1.595000000     5.840000000    -0.330000000
H     2.100000000     7.259000000    -0.179000000
O     1.753000000    -4.064000000     5.052000000
H     2.180000000    -4.916000000     5.138000000
H     2.233000000    -3.624000000     4.351000000
O     5.950000000     4.256000000     2.253000000
H     5.025000000     4.119000000     2.048000000
H     6.396000000     4.180000000     1.410000000
O     6.740000000     1.204000000     0.922000000
H     6.521000000     0.294000000     1.124000000
H     6.050000000     1.490000000     0.324000000
O    -0.370000000    -0.793000000     5.918000000
H    -0.215000000     0.151000000     5.880000000
H    -1.073000000    -0.895000000     6.559000000
O     1.356000000     2.053000000    -5.202000000
H     1.597000000     1.563000000    -4.416000000
H     0.399000000     2.059000000    -5.196000000
O    -0.926000000     7.023000000     1.143000000
H    -0.405000000     6.283000000     0.829000000
H    -0.292000000     7.729000000     1.265000000
O     4.283000000     3.210000000    -3.787000000
H     3.568000000     2.813000000    -3.290000000
H     3.846000000     3.754000000    -4.442000000
O     3.856000000     0.518000000    -7.692000000
H     4.183000000     1.330000000    -8.080000000
H     3.442000000     0.792000000    -6.874000000
O     4.146000000    -0.516000000    -4.976000000
H     3.743000000    -1.383000000    -5.026000000
H     3.488000000     0.030000000    -4.545000000
O    -1.064000000     5.305000000    -3.331000000
H    -0.744000000     6.172000000    -3.084000000
H    -1.518000000     5.444000000    -4.162000000
O    -2.189000000    -1.905000000    -3.801000000
H    -2.505000000    -2.217000000    -4.649000000
H    -1.415000000    -1.381000000    -4.011000000
O     1.964000000    -0.530000000     4.521000000
H     1.196000000    -0.724000000     5.060000000
H     1.962000000     0.423000000     4.436000000
O    -3.276000000     1.909000000     0.335000000
H    -3.683000000     2.158000000    -0.495000000
H    -3.533000000     0.996000000     0.464000000
O    -6.156000000    -0.726000000     3.983000000
H    -6.115000000    -0.532000000     4.919000000
H    -6.580000000    -1.583000000     3.934000000
O    -5.146000000    -0.958000000     1.486000000
H    -6.045000000    -1.080000000     1.181000000
H    -5.229000000    -0.814000000     2.428000000
O     1.509000000    -5.563000000     1.826000000
H     1.759000000    -4.704000000     2.165000000
H     1.037000000    -5.373000000     1.015000000
