161
-3024.04854
C    -0.275000000     1.278000000    -0.660000000
H    -0.397000000     2.297000000    -1.018000000
C    -0.920000000     0.819000000     0.478000000
H    -1.604000000     1.498000000     0.981000000
C    -0.588000000    -0.416000000     1.029000000
C    -1.149000000    -0.828000000     2.287000000
H    -2.022000000    -1.467000000     2.148000000
H    -0.478000000    -1.466000000     2.866000000
H    -1.352000000     0.101000000     2.825000000
C     0.346000000    -1.227000000     0.340000000
H     0.666000000    -2.163000000     0.790000000
C     0.948000000    -0.731000000    -0.809000000
H     1.739000000    -1.362000000    -1.208000000
C     0.631000000     0.480000000    -1.309000000
C     1.352000000     0.909000000    -2.566000000
O     1.868000000     0.158000000    -3.379000000
O     1.235000000     2.128000000    -2.790000000
O    -2.378000000     2.267000000     6.309000000
H    -1.958000000     1.672000000     5.688000000
H    -2.502000000     3.079000000     5.817000000
O     6.031000000    -0.805000000    -1.377000000
H     5.585000000    -1.237000000    -0.648000000
H     6.136000000    -1.493000000    -2.034000000
O     3.731000000    -1.777000000    -4.107000000
H     4.509000000    -1.341000000    -3.757000000
H     3.014000000    -1.171000000    -3.922000000
O     1.632000000     1.597000000     1.865000000
H     1.121000000     2.328000000     1.515000000
H     1.246000000     0.820000000     1.460000000
O     3.852000000     6.217000000    -0.856000000
H     3.030000000     5.862000000    -1.194000000
H     4.042000000     5.685000000    -0.083000000
O     3.895000000     6.416000000    -4.375000000
H     3.188000000     6.029000000    -3.858000000
H     4.670000000     6.333000000    -3.820000000
O     4.458000000    -3.010000000    -6.381000000
H     3.993000000    -2.554000000    -5.680000000
H     5.083000000    -2.365000000    -6.712000000
O    -1.131000000     6.092000000    -4.961000000
H    -0.606000000     5.310000000    -5.128000000
H    -1.175000000     6.152000000    -4.006000000
O    -2.529000000     4.111000000     1.893000000
H    -2.764000000     4.031000000     0.969000000
H    -2.240000000     5.018000000     1.990000000
O     1.587000000     4.700000000    -5.630000000
H     2.288000000     4.050000000    -5.580000000
H     2.020000000     5.499000000    -5.929000000
O    -0.614000000    -5.306000000     4.412000000
H    -0.253000000    -4.432000000     4.261000000
H    -0.456000000    -5.776000000     3.593000000
O    -4.706000000    -2.369000000     1.288000000
H    -4.605000000    -2.246000000     0.345000000
H    -4.474000000    -3.286000000     1.437000000
O    -3.042000000     2.138000000     3.451000000
H    -2.644000000     2.774000000     2.857000000
H    -3.463000000     1.502000000     2.873000000
O     1.744000000     4.598000000    -2.052000000
H     0.998000000     5.189000000    -2.154000000
H     1.473000000     3.792000000    -2.491000000
O    -3.258000000    -4.327000000     3.824000000
H    -3.720000000    -4.206000000     4.653000000
H    -2.494000000    -4.857000000     4.051000000
O    -0.658000000    -0.626000000     7.564000000
H    -0.270000000    -1.500000000     7.521000000
H    -0.683000000    -0.330000000     6.654000000
O    -2.549000000     1.347000000    -3.236000000
H    -2.008000000     1.906000000    -3.794000000
H    -2.099000000     1.345000000    -2.391000000
O     0.175000000    -3.626000000    -4.515000000
H    -0.502000000    -4.135000000    -4.069000000
H     0.220000000    -4.005000000    -5.393000000
O     3.111000000     2.378000000    -5.015000000
H     2.910000000     1.446000000    -4.928000000
H     2.857000000     2.757000000    -4.173000000
O    -1.579000000    -2.465000000    -1.364000000
H    -2.480000000    -2.144000000    -1.413000000
H    -1.068000000    -1.705000000    -1.088000000
O    -0.489000000     3.028000000    -4.566000000
H     0.060000000     2.692000000    -3.857000000
H     0.128000000     3.438000000    -5.172000000
O     3.534000000    -1.758000000     2.507000000
H     3.682000000    -2.105000000     1.627000000
H     4.365000000    -1.344000000     2.743000000
O     2.829000000    -4.316000000    -2.520000000
H     3.130000000    -3.498000000    -2.915000000
H     1.898000000    -4.360000000    -2.741000000
O     0.747000000    -7.047000000    -1.261000000
H     1.701000000    -7.114000000    -1.211000000
H     0.570000000    -6.107000000    -1.228000000
O     2.435000000     0.278000000     4.136000000
H     2.284000000     0.949000000     3.470000000
H     2.636000000    -0.514000000     3.638000000
O    -0.351000000     6.446000000    -2.175000000
H    -0.347000000     7.171000000    -1.551000000
H    -0.942000000     5.800000000    -1.787000000
O    -5.954000000     0.948000000     4.677000000
H    -5.685000000     0.854000000     3.763000000
H    -6.851000000     1.279000000     4.630000000
O     0.479000000     3.926000000     1.297000000
H    -0.259000000     4.087000000     0.708000000
H     0.374000000     4.573000000     1.994000000
O    -0.013000000    -0.085000000    -7.558000000
H     0.533000000     0.699000000    -7.620000000
H     0.077000000    -0.368000000    -6.649000000
O     0.193000000     1.089000000     5.379000000
H     0.925000000     0.535000000     5.110000000
H     0.569000000     1.967000000     5.447000000
O     3.902000000     3.419000000    -0.184000000
H     3.140000000     3.328000000    -0.757000000
H     4.606000000     2.965000000    -0.648000000
O     3.314000000    -3.041000000     0.241000000
H     2.864000000    -3.400000000     1.006000000
H     3.053000000    -3.613000000    -0.481000000
O    -1.921000000    -3.935000000     0.962000000
H    -1.659000000    -3.560000000     0.121000000
H    -2.271000000    -3.194000000     1.456000000
O     0.579000000    -1.022000000    -5.213000000
H     1.004000000    -0.566000000    -4.487000000
H     0.610000000    -1.946000000    -4.967000000
O    -0.217000000    -4.689000000    -1.820000000
H    -1.037000000    -5.117000000    -2.066000000
H    -0.417000000    -3.754000000    -1.846000000
O    -5.456000000     0.687000000    -0.522000000
H    -6.341000000     0.395000000    -0.304000000
H    -5.547000000     1.625000000    -0.687000000
O    -2.012000000     4.542000000     4.835000000
H    -1.443000000     5.313000000     4.826000000
H    -2.192000000     4.367000000     3.912000000
O     5.323000000     1.955000000    -2.207000000
H     5.336000000     1.002000000    -2.120000000
H     6.102000000     2.159000000    -2.726000000
O     1.305000000    -3.138000000     4.439000000
H     1.559000000    -2.219000000     4.357000000
H     1.355000000    -3.318000000     5.378000000
O    -2.226000000     3.528000000    -6.635000000
H    -3.157000000     3.356000000    -6.497000000
H    -1.786000000     3.036000000    -5.943000000
O    -4.334000000    -1.821000000    -1.648000000
H    -4.487000000    -0.885000000    -1.516000000
H    -5.112000000    -2.127000000    -2.115000000
O     2.264000000    -4.516000000     2.263000000
H     1.350000000    -4.789000000     2.185000000
H     2.319000000    -4.104000000     3.125000000
O    -7.270000000    -3.144000000     1.953000000
H    -6.366000000    -2.885000000     1.773000000
H    -7.432000000    -2.841000000     2.846000000
O    -0.169000000    -5.881000000     1.854000000
H    -0.335000000    -6.663000000     1.327000000
H    -0.848000000    -5.263000000     1.585000000
O    -2.573000000    -1.426000000    -5.687000000
H    -2.180000000    -0.941000000    -4.960000000
H    -1.871000000    -1.499000000    -6.334000000
O    -4.226000000    -5.599000000     0.277000000
H    -3.978000000    -6.524000000     0.263000000
H    -3.406000000    -5.135000000     0.449000000
O    -4.644000000     0.258000000     2.090000000
H    -4.951000000     0.434000000     1.201000000
H    -4.265000000    -0.620000000     2.043000000
O    -2.163000000     4.636000000    -0.966000000
H    -2.601000000     5.460000000    -0.752000000
H    -2.836000000     4.115000000    -1.405000000
