161
-3048.14829
C    -0.473000000     1.443000000     0.120000000
H    -0.703000000     2.490000000     0.304000000
C    -0.472000000     0.481000000     1.145000000
H    -0.836000000     0.826000000     2.109000000
C    -0.130000000    -0.874000000     0.925000000
C    -0.100000000    -1.923000000     1.933000000
H     0.180000000    -1.498000000     2.899000000
H    -1.075000000    -2.410000000     2.013000000
H     0.696000000    -2.657000000     1.788000000
C     0.205000000    -1.207000000    -0.408000000
H     0.596000000    -2.206000000    -0.579000000
C     0.290000000    -0.271000000    -1.448000000
H     0.671000000    -0.609000000    -2.408000000
C    -0.023000000     1.041000000    -1.129000000
C     0.269000000     2.146000000    -2.165000000
O     0.925000000     1.924000000    -3.180000000
O    -0.013000000     3.303000000    -1.913000000
O     3.012000000    -0.782000000     0.983000000
H     2.908000000    -1.319000000     1.768000000
H     2.117000000    -0.564000000     0.722000000
O    -3.344000000    -1.006000000     2.454000000
H    -3.536000000    -1.921000000     2.658000000
H    -3.072000000    -1.017000000     1.536000000
O     2.943000000    -1.931000000    -3.594000000
H     3.237000000    -1.095000000    -3.232000000
H     3.573000000    -2.571000000    -3.261000000
O     2.477000000     1.976000000     4.194000000
H     2.502000000     1.595000000     5.072000000
H     2.841000000     2.854000000     4.304000000
O     4.470000000     2.996000000     2.210000000
H     4.919000000     3.838000000     2.278000000
H     3.563000000     3.223000000     2.006000000
O     1.573000000     7.305000000    -1.530000000
H     2.244000000     7.913000000    -1.221000000
H     1.819000000     6.462000000    -1.150000000
O     0.020000000     3.136000000     3.656000000
H     0.525000000     2.356000000     3.888000000
H     0.520000000     3.542000000     2.948000000
O    -0.380000000     3.550000000    -6.377000000
H     0.045000000     4.365000000    -6.645000000
H    -0.530000000     3.657000000    -5.437000000
O    -0.757000000    -4.952000000     6.682000000
H    -1.607000000    -5.268000000     6.377000000
H    -0.682000000    -4.073000000     6.310000000
O    -2.761000000     3.191000000     4.850000000
H    -1.897000000     2.821000000     4.668000000
H    -3.208000000     3.184000000     4.003000000
O     2.171000000     4.578000000    -1.023000000
H     2.957000000     4.366000000    -1.528000000
H     1.486000000     4.029000000    -1.404000000
O    -3.312000000    -2.858000000     4.927000000
H    -2.728000000    -2.108000000     5.038000000
H    -3.387000000    -3.236000000     5.803000000
O    -0.516000000    -2.181000000     5.606000000
H     0.366000000    -2.547000000     5.550000000
H    -0.661000000    -2.047000000     6.542000000
O     2.109000000     4.202000000    -4.304000000
H     1.799000000     3.771000000    -3.508000000
H     1.680000000     3.727000000    -5.016000000
O     2.114000000    -1.282000000    -6.074000000
H     2.443000000    -1.471000000    -5.195000000
H     1.688000000    -0.429000000    -5.992000000
O     0.329000000     0.942000000    -5.518000000
H     0.489000000     1.232000000    -4.620000000
H     0.081000000     1.739000000    -5.987000000
O    -3.331000000     0.758000000    -2.389000000
H    -3.971000000     0.583000000    -3.078000000
H    -2.483000000     0.600000000    -2.804000000
O     3.210000000     6.673000000    -4.532000000
H     3.431000000     6.566000000    -5.457000000
H     2.686000000     5.901000000    -4.320000000
O     2.728000000    -2.967000000     5.827000000
H     3.447000000    -3.571000000     6.013000000
H     2.940000000    -2.180000000     6.328000000
O     3.270000000    -3.710000000     2.009000000
H     3.208000000    -2.819000000     2.352000000
H     4.075000000    -3.713000000     1.492000000
O    -0.375000000    -5.059000000    -0.492000000
H    -0.851000000    -5.722000000    -0.992000000
H     0.247000000    -4.687000000    -1.117000000
O     5.550000000    -5.190000000     2.902000000
H     4.687000000    -4.882000000     2.628000000
H     6.166000000    -4.626000000     2.433000000
O    -1.289000000    -5.523000000    -3.853000000
H    -1.000000000    -5.842000000    -4.708000000
H    -1.444000000    -4.588000000    -3.987000000
O     1.558000000     4.464000000     1.959000000
H     1.542000000     4.298000000     1.016000000
H     1.519000000     5.417000000     2.035000000
O     3.508000000     0.668000000    -2.872000000
H     3.952000000     1.478000000    -2.622000000
H     2.676000000     0.957000000    -3.247000000
O    -2.759000000    -3.534000000     0.104000000
H    -1.962000000    -4.054000000     0.007000000
H    -3.185000000    -3.890000000     0.884000000
O    -1.782000000    -0.722000000    -5.307000000
H    -2.088000000    -0.947000000    -6.186000000
H    -0.995000000    -0.197000000    -5.453000000
O    -1.727000000    -2.860000000    -3.746000000
H    -2.601000000    -2.935000000    -3.362000000
H    -1.742000000    -2.023000000    -4.212000000
O     5.191000000     0.670000000     1.270000000
H     4.382000000     0.173000000     1.146000000
H     4.909000000     1.489000000     1.676000000
O    -2.197000000     4.533000000    -0.961000000
H    -1.651000000     4.149000000    -1.648000000
H    -1.760000000     5.356000000    -0.741000000
O     4.916000000     3.375000000    -5.399000000
H     5.222000000     2.476000000    -5.517000000
H     4.374000000     3.342000000    -4.610000000
O    -3.605000000     5.532000000     1.245000000
H    -3.271000000     4.985000000     0.534000000
H    -2.893000000     5.556000000     1.885000000
O    -2.127000000     5.848000000     3.728000000
H    -2.917000000     5.739000000     4.258000000
H    -1.533000000     5.165000000     4.040000000
O     4.645000000     3.457000000    -2.361000000
H     4.929000000     4.371000000    -2.362000000
H     5.238000000     3.023000000    -1.747000000
O     5.047000000    -1.582000000    -0.800000000
H     5.379000000    -0.686000000    -0.850000000
H     4.135000000    -1.484000000    -0.524000000
O     0.927000000    -3.627000000    -2.571000000
H    -0.005000000    -3.425000000    -2.647000000
H     1.369000000    -2.862000000    -2.940000000
O    -0.680000000     0.803000000     5.795000000
H    -0.714000000    -0.151000000     5.723000000
H     0.237000000     0.995000000     5.988000000
O    -1.007000000     4.980000000    -3.765000000
H    -0.522000000     5.806000000    -3.776000000
H    -0.427000000     4.368000000    -3.313000000
O    -4.298000000     2.933000000    -0.847000000
H    -4.000000000     2.043000000    -1.036000000
H    -3.593000000     3.495000000    -1.168000000
O    -3.751000000     5.296000000    -4.929000000
H    -4.176000000     5.816000000    -4.246000000
H    -2.893000000     5.077000000    -4.564000000
O    -4.491000000    -3.789000000     2.788000000
H    -4.120000000    -3.439000000     3.598000000
H    -4.704000000    -4.699000000     2.995000000
O    -5.339000000    -0.198000000     4.431000000
H    -4.572000000    -0.453000000     3.918000000
H    -5.783000000     0.455000000     3.890000000
O    -3.917000000    -1.198000000    -0.248000000
H    -3.655000000    -0.553000000    -0.905000000
H    -3.322000000    -1.935000000    -0.385000000
O    -0.858000000     6.947000000    -0.377000000
H    -0.046000000     7.075000000    -0.867000000
H    -0.657000000     7.255000000     0.506000000
O    -3.855000000     2.289000000     2.462000000
H    -3.319000000     1.510000000     2.313000000
H    -4.265000000     2.463000000     1.615000000
O     3.292000000    -1.653000000     3.610000000
H     3.926000000    -1.083000000     4.044000000
H     3.011000000    -2.263000000     4.292000000
O     2.038000000    -6.168000000     0.940000000
H     1.117000000    -5.990000000     0.751000000
H     2.394000000    -5.321000000     1.211000000
O     2.797000000    -5.516000000    -2.997000000
H     2.243000000    -4.757000000    -2.817000000
H     3.514000000    -5.444000000    -2.367000000
