161
-3039.74134
C     0.415000000     0.783000000    -1.171000000
H     0.428000000     1.329000000    -2.111000000
C    -0.350000000     1.252000000    -0.190000000
H    -0.889000000     2.168000000    -0.418000000
C    -0.522000000     0.546000000     0.995000000
C    -1.447000000     1.022000000     2.081000000
H    -0.853000000     1.730000000     2.664000000
H    -2.254000000     1.618000000     1.650000000
H    -1.744000000     0.214000000     2.752000000
C     0.049000000    -0.776000000     1.096000000
H    -0.149000000    -1.459000000     1.918000000
C     0.676000000    -1.330000000    -0.013000000
H     1.019000000    -2.359000000     0.049000000
C     0.959000000    -0.555000000    -1.144000000
C     1.441000000    -1.207000000    -2.373000000
O     1.516000000    -2.434000000    -2.399000000
O     1.705000000    -0.537000000    -3.392000000
O     3.137000000     3.674000000    -0.285000000
H     3.179000000     3.026000000     0.419000000
H     2.327000000     4.156000000    -0.120000000
O     2.952000000    -6.051000000    -0.312000000
H     2.057000000    -6.345000000    -0.480000000
H     3.492000000    -6.826000000    -0.469000000
O     3.135000000    -3.155000000    -7.735000000
H     2.785000000    -3.283000000    -8.616000000
H     3.042000000    -2.216000000    -7.575000000
O     3.830000000    -1.323000000    -4.642000000
H     3.378000000    -1.424000000    -5.480000000
H     3.153000000    -1.015000000    -4.040000000
O     0.224000000     5.427000000    -5.100000000
H    -0.185000000     4.639000000    -5.459000000
H     0.684000000     5.123000000    -4.318000000
O     2.198000000    -0.900000000     4.843000000
H     1.751000000    -0.056000000     4.902000000
H     2.824000000    -0.890000000     5.568000000
O    -2.475000000    -4.772000000     2.910000000
H    -2.008000000    -4.339000000     3.625000000
H    -3.400000000    -4.606000000     3.092000000
O     1.480000000    -3.318000000     3.729000000
H     2.051000000    -3.976000000     4.126000000
H     1.601000000    -2.538000000     4.270000000
O     5.613000000    -2.340000000    -2.789000000
H     4.984000000    -2.256000000    -3.506000000
H     5.106000000    -2.717000000    -2.070000000
O    -3.211000000     0.796000000    -1.414000000
H    -2.259000000     0.890000000    -1.427000000
H    -3.366000000     0.004000000    -0.899000000
O     6.458000000    -0.547000000    -5.887000000
H     5.535000000    -0.507000000    -5.636000000
H     6.863000000     0.189000000    -5.427000000
O    -3.907000000    -2.416000000     5.726000000
H    -4.045000000    -1.877000000     4.947000000
H    -2.974000000    -2.325000000     5.919000000
O    -2.313000000     1.792000000     6.002000000
H    -1.383000000     1.681000000     5.806000000
H    -2.582000000     2.540000000     5.469000000
O    -5.534000000     2.178000000     2.838000000
H    -6.460000000     1.962000000     2.731000000
H    -5.167000000     1.430000000     3.311000000
O     5.005000000     2.473000000    -6.024000000
H     4.430000000     2.816000000    -6.707000000
H     4.424000000     2.313000000    -5.280000000
O    -2.786000000    -0.212000000    -4.308000000
H    -2.950000000     0.567000000    -3.777000000
H    -1.832000000    -0.285000000    -4.337000000
O     2.977000000     1.700000000    -4.329000000
H     2.531000000     2.451000000    -3.936000000
H     2.427000000     0.950000000    -4.103000000
O     2.614000000     1.226000000     1.436000000
H     1.919000000     0.894000000     0.867000000
H     2.984000000     0.443000000     1.843000000
O     2.491000000    -4.032000000    -4.372000000
H     2.945000000    -3.337000000    -4.847000000
H     2.044000000    -3.581000000    -3.655000000
O    -0.398000000    -4.690000000    -5.336000000
H     0.300000000    -4.979000000    -4.748000000
H    -0.635000000    -5.475000000    -5.831000000
O    -2.889000000    -3.077000000    -3.827000000
H    -3.636000000    -2.543000000    -4.096000000
H    -2.743000000    -3.673000000    -4.562000000
O     0.049000000     4.340000000     2.771000000
H    -0.069000000     5.289000000     2.813000000
H     0.984000000     4.208000000     2.926000000
O     3.343000000    -6.432000000    -5.356000000
H     3.105000000    -5.727000000    -4.754000000
H     2.966000000    -6.168000000    -6.195000000
O     1.494000000     4.051000000    -3.103000000
H     1.917000000     4.750000000    -2.604000000
H     1.073000000     3.504000000    -2.440000000
O    -4.638000000     0.593000000     4.879000000
H    -5.311000000     0.723000000     5.548000000
H    -3.846000000     0.974000000     5.259000000
O     2.672000000     3.549000000     2.877000000
H     3.611000000     3.708000000     2.785000000
H     2.551000000     2.648000000     2.578000000
O     0.625000000     1.220000000     6.201000000
H     1.328000000     0.978000000     6.803000000
H     0.700000000     2.171000000     6.115000000
O    -2.420000000     5.344000000     6.073000000
H    -2.591000000     4.902000000     5.241000000
H    -1.604000000     4.955000000     6.387000000
O     4.312000000    -0.896000000     2.965000000
H     4.823000000    -1.525000000     2.456000000
H     3.684000000    -1.433000000     3.449000000
O     1.946000000    -0.956000000    -7.335000000
H     1.240000000    -1.233000000    -6.751000000
H     1.543000000    -0.299000000    -7.903000000
O    -0.065000000    -6.206000000    -0.900000000
H    -0.188000000    -5.257000000    -0.866000000
H    -0.220000000    -6.500000000    -0.002000000
O    -4.739000000     3.492000000    -1.894000000
H    -4.702000000     3.983000000    -2.715000000
H    -4.263000000     2.682000000    -2.078000000
O     0.300000000    -1.870000000    -5.266000000
H     0.698000000    -1.457000000    -4.500000000
H     0.277000000    -2.802000000    -5.050000000
O     0.482000000     3.977000000     5.936000000
H     0.716000000     4.728000000     6.482000000
H     0.030000000     4.361000000     5.184000000
O    -0.975000000    -3.692000000    -2.082000000
H    -0.082000000    -3.434000000    -2.309000000
H    -1.513000000    -3.344000000    -2.794000000
O    -3.339000000     6.297000000     0.611000000
H    -2.689000000     6.202000000    -0.085000000
H    -3.998000000     5.631000000     0.417000000
O    -4.375000000    -1.182000000     0.262000000
H    -4.148000000    -2.003000000    -0.175000000
H    -5.013000000    -1.435000000     0.930000000
O     4.588000000     0.801000000    -1.971000000
H     4.341000000     0.204000000    -2.677000000
H     3.967000000     1.526000000    -2.042000000
O    -3.357000000    -3.774000000     0.090000000
H    -2.937000000    -3.628000000     0.937000000
H    -2.630000000    -3.906000000    -0.519000000
O    -1.287000000    -1.789000000     5.529000000
H    -0.516000000    -2.350000000     5.605000000
H    -0.943000000    -0.948000000     5.227000000
O     5.275000000    -2.957000000     1.114000000
H     4.781000000    -3.199000000     0.331000000
H     5.634000000    -3.783000000     1.436000000
O    -0.478000000     1.413000000    -4.922000000
H    -0.911000000     2.178000000    -5.301000000
H     0.267000000     1.248000000    -5.500000000
O    -0.476000000    -5.026000000     5.075000000
H     0.055000000    -5.212000000     5.849000000
H    -0.063000000    -4.259000000     4.679000000
O    -5.172000000     4.231000000     0.941000000
H    -4.995000000     3.672000000     0.184000000
H    -5.083000000     3.649000000     1.695000000
O    -1.500000000     6.750000000    -1.489000000
H    -0.723000000     7.149000000    -1.881000000
H    -2.058000000     6.530000000    -2.235000000
O     3.925000000    -3.587000000    -1.189000000
H     3.083000000    -3.199000000    -1.429000000
H     3.733000000    -4.516000000    -1.063000000
O     0.317000000     4.722000000    -0.500000000
H    -0.151000000     5.487000000    -0.834000000
H    -0.043000000     4.586000000     0.377000000
O    -2.604000000     3.778000000     3.866000000
H    -1.746000000     3.746000000     3.444000000
H    -3.214000000     3.477000000     3.192000000
