161
-3013.44107
C     0.105000000     0.097000000    -1.420000000
H    -0.122000000     0.197000000    -2.479000000
C    -0.119000000     1.115000000    -0.615000000
H    -0.326000000     2.099000000    -1.028000000
C    -0.076000000     0.935000000     0.772000000
C    -0.300000000     2.146000000     1.603000000
H    -0.648000000     1.878000000     2.603000000
H     0.605000000     2.756000000     1.646000000
H    -1.110000000     2.723000000     1.152000000
C     0.163000000    -0.275000000     1.291000000
H     0.242000000    -0.506000000     2.351000000
C     0.243000000    -1.386000000     0.455000000
H     0.324000000    -2.403000000     0.830000000
C     0.226000000    -1.191000000    -0.932000000
C     0.154000000    -2.424000000    -1.824000000
O     0.188000000    -3.545000000    -1.420000000
O     0.444000000    -2.208000000    -2.984000000
O     4.438000000    -2.257000000     1.929000000
H     4.744000000    -1.860000000     2.744000000
H     3.544000000    -2.538000000     2.121000000
O     4.583000000    -6.608000000    -1.913000000
H     3.869000000    -6.006000000    -1.703000000
H     5.000000000    -6.789000000    -1.070000000
O     1.055000000    -5.178000000    -3.700000000
H     1.603000000    -4.711000000    -4.331000000
H     0.912000000    -4.548000000    -2.994000000
O    -1.999000000     5.037000000    -3.533000000
H    -2.481000000     5.274000000    -4.325000000
H    -1.318000000     5.706000000    -3.458000000
O     3.641000000     1.893000000     4.862000000
H     3.100000000     2.560000000     4.439000000
H     4.037000000     1.410000000     4.137000000
O    -4.592000000     2.953000000    -0.502000000
H    -4.527000000     2.405000000     0.281000000
H    -5.491000000     3.281000000    -0.490000000
O    -3.610000000    -2.719000000     3.039000000
H    -2.812000000    -3.246000000     3.010000000
H    -3.707000000    -2.381000000     2.149000000
O     3.547000000     0.036000000    -4.766000000
H     3.229000000    -0.795000000    -4.413000000
H     3.255000000     0.693000000    -4.133000000
O     1.272000000    -3.348000000     3.717000000
H     1.676000000    -3.342000000     4.585000000
H     1.884000000    -3.841000000     3.171000000
O     0.956000000     6.689000000     1.902000000
H     1.071000000     6.645000000     0.952000000
H     1.705000000     7.200000000     2.210000000
O    -0.190000000    -4.789000000    -6.505000000
H    -0.803000000    -4.116000000    -6.798000000
H     0.539000000    -4.300000000    -6.124000000
O    -3.171000000    -2.068000000    -2.158000000
H    -3.047000000    -1.673000000    -3.021000000
H    -3.214000000    -3.009000000    -2.330000000
O    -3.124000000    -1.207000000     0.644000000
H    -2.222000000    -1.443000000     0.859000000
H    -3.271000000    -1.585000000    -0.223000000
O    -4.146000000     0.957000000     5.173000000
H    -4.710000000     1.570000000     5.646000000
H    -4.635000000     0.748000000     4.377000000
O    -1.246000000     2.398000000    -3.516000000
H    -1.892000000     1.698000000    -3.423000000
H    -1.698000000     3.184000000    -3.207000000
O     2.982000000     4.864000000    -1.176000000
H     2.390000000     5.444000000    -1.655000000
H     3.814000000     5.337000000    -1.154000000
O     2.284000000     3.813000000     3.473000000
H     1.334000000     3.726000000     3.392000000
H     2.613000000     3.685000000     2.583000000
O     4.665000000    -1.746000000     4.626000000
H     4.535000000    -2.195000000     5.461000000
H     3.886000000    -1.201000000     4.522000000
O     3.724000000     0.951000000    -0.188000000
H     2.953000000     0.924000000    -0.754000000
H     4.462000000     1.037000000    -0.792000000
O    -1.970000000    -4.595000000    -3.290000000
H    -1.558000000    -5.079000000    -4.006000000
H    -1.240000000    -4.319000000    -2.736000000
O     3.315000000     3.262000000     0.931000000
H     2.964000000     3.708000000     0.161000000
H     3.527000000     2.382000000     0.622000000
O     0.002000000    -7.497000000    -3.074000000
H     0.269000000    -6.672000000    -3.479000000
H     0.473000000    -8.169000000    -3.568000000
O    -1.088000000     1.506000000     7.780000000
H    -1.075000000     1.913000000     6.913000000
H    -1.896000000     1.826000000     8.182000000
O     5.633000000     3.562000000     2.827000000
H     4.852000000     3.602000000     2.275000000
H     6.035000000     2.720000000     2.612000000
O     4.080000000     5.787000000     3.942000000
H     4.812000000     5.223000000     3.692000000
H     3.302000000     5.247000000     3.799000000
O     0.601000000    -7.722000000    -0.393000000
H     1.115000000    -8.512000000    -0.223000000
H     0.439000000    -7.740000000    -1.336000000
O    -2.482000000    -1.071000000     5.679000000
H    -2.870000000    -0.245000000     5.390000000
H    -2.760000000    -1.709000000     5.021000000
O    -3.198000000     0.935000000    -1.860000000
H    -3.660000000     1.702000000    -1.523000000
H    -2.439000000     0.840000000    -1.284000000
O     2.464000000    -3.748000000    -5.286000000
H     3.386000000    -3.997000000    -5.348000000
H     2.448000000    -2.826000000    -5.544000000
O    -2.036000000    -4.008000000     0.040000000
H    -1.191000000    -4.010000000    -0.409000000
H    -1.817000000    -3.880000000     0.963000000
O    -3.796000000     1.284000000     1.602000000
H    -3.501000000     0.429000000     1.289000000
H    -4.431000000     1.082000000     2.289000000
O    -0.668000000    -1.195000000    -5.143000000
H     0.119000000    -0.693000000    -5.352000000
H    -0.397000000    -1.781000000    -4.436000000
O     2.956000000     0.288000000     2.480000000
H     2.048000000     0.499000000     2.263000000
H     3.446000000     0.490000000     1.683000000
O    -1.193000000     3.946000000     6.196000000
H    -1.322000000     4.702000000     6.770000000
H    -0.576000000     4.253000000     5.531000000
O    -2.824000000    -7.149000000    -2.391000000
H    -2.102000000    -7.761000000    -2.248000000
H    -2.466000000    -6.493000000    -2.989000000
O     2.584000000    -5.434000000     2.019000000
H     2.791000000    -6.319000000     2.319000000
H     1.744000000    -5.524000000     1.568000000
O     0.615000000     3.333000000    -5.268000000
H     0.080000000     3.345000000    -6.062000000
H     0.065000000     2.901000000    -4.615000000
O     3.135000000    -1.965000000    -2.929000000
H     2.183000000    -2.071000000    -2.942000000
H     3.425000000    -2.496000000    -2.187000000
O    -5.200000000    -3.879000000    -0.639000000
H    -5.794000000    -3.145000000    -0.796000000
H    -4.326000000    -3.487000000    -0.652000000
O     0.023000000    -1.122000000     6.564000000
H    -0.174000000    -0.286000000     6.987000000
H    -0.762000000    -1.323000000     6.054000000
O    -3.278000000    -1.709000000    -5.096000000
H    -3.653000000    -0.854000000    -4.885000000
H    -2.334000000    -1.557000000    -5.123000000
O    -3.653000000     0.974000000    -5.772000000
H    -2.722000000     0.822000000    -5.934000000
H    -3.687000000     1.832000000    -5.350000000
O    -1.173000000    -3.937000000     2.585000000
H    -1.003000000    -4.863000000     2.756000000
H    -0.474000000    -3.475000000     3.049000000
O     2.871000000     2.294000000    -3.021000000
H     2.150000000     2.683000000    -3.516000000
H     3.085000000     2.949000000    -2.356000000
O    -1.678000000     5.880000000    -0.591000000
H    -0.750000000     5.957000000    -0.814000000
H    -2.000000000     5.172000000    -1.149000000
O     2.336000000    -5.299000000    -0.972000000
H     1.641000000    -4.641000000    -0.998000000
H     1.873000000    -6.133000000    -0.888000000
O    -3.160000000     5.047000000     1.581000000
H    -3.068000000     4.097000000     1.652000000
H    -2.629000000     5.283000000     0.821000000
O     0.027000000     5.558000000     4.053000000
H     0.179000000     5.746000000     3.127000000
H     0.743000000     6.001000000     4.508000000
