161
-3025.43353
C     0.435000000     0.454000000    -1.329000000
H     0.813000000     0.887000000    -2.252000000
C     0.107000000     1.284000000    -0.283000000
H     0.021000000     2.336000000    -0.544000000
C    -0.403000000     0.741000000     0.915000000
C    -0.816000000     1.678000000     2.013000000
H    -0.444000000     2.686000000     1.819000000
H    -1.905000000     1.734000000     2.057000000
H    -0.496000000     1.337000000     3.000000000
C    -0.323000000    -0.618000000     1.118000000
H    -0.567000000    -1.101000000     2.061000000
C     0.047000000    -1.427000000     0.054000000
H     0.223000000    -2.487000000     0.220000000
C     0.428000000    -0.964000000    -1.167000000
C     0.822000000    -1.876000000    -2.280000000
O     0.716000000    -3.082000000    -2.062000000
O     1.338000000    -1.576000000    -3.333000000
O    -1.772000000    -5.602000000    -4.014000000
H    -0.844000000    -5.542000000    -3.788000000
H    -2.036000000    -4.697000000    -4.184000000
O    -1.879000000    -2.896000000    -4.061000000
H    -1.623000000    -2.099000000    -4.524000000
H    -1.600000000    -2.749000000    -3.157000000
O    -0.763000000     7.455000000    -1.117000000
H    -1.091000000     7.028000000    -1.908000000
H    -0.278000000     6.770000000    -0.657000000
O     2.528000000     3.345000000     4.007000000
H     3.284000000     3.869000000     4.274000000
H     2.612000000     3.271000000     3.056000000
O     0.899000000    -5.501000000    -3.570000000
H     1.298000000    -4.786000000    -3.074000000
H     1.602000000    -5.823000000    -4.134000000
O     2.407000000     3.799000000    -3.722000000
H     2.124000000     2.954000000    -3.374000000
H     3.340000000     3.844000000    -3.514000000
O     3.309000000    -0.918000000     2.312000000
H     2.696000000    -0.396000000     2.830000000
H     3.018000000    -1.822000000     2.438000000
O    -4.994000000    -1.872000000    -0.829000000
H    -4.172000000    -1.402000000    -0.682000000
H    -4.931000000    -2.645000000    -0.268000000
O    -2.676000000    -0.410000000    -1.214000000
H    -2.678000000     0.492000000    -1.535000000
H    -1.768000000    -0.570000000    -0.957000000
O     1.087000000    -0.838000000    -7.726000000
H     1.051000000    -0.157000000    -7.055000000
H     1.715000000    -1.476000000    -7.387000000
O    -3.396000000     3.085000000     4.342000000
H    -4.235000000     3.502000000     4.146000000
H    -3.097000000     2.743000000     3.499000000
O     2.454000000     3.101000000    -6.263000000
H     2.330000000     3.416000000    -5.367000000
H     2.455000000     3.895000000    -6.797000000
O    -1.409000000    -0.572000000     4.811000000
H    -2.187000000    -0.463000000     5.357000000
H    -1.530000000    -1.422000000     4.388000000
O    -2.333000000    -3.571000000     6.618000000
H    -1.535000000    -4.052000000     6.834000000
H    -2.029000000    -2.817000000     6.112000000
O     3.027000000     1.018000000     5.286000000
H     2.286000000     0.452000000     5.068000000
H     2.763000000     1.887000000     4.983000000
O     1.432000000     5.157000000    -0.985000000
H     1.437000000     4.478000000    -1.659000000
H     2.107000000     5.776000000    -1.264000000
O     4.465000000    -0.945000000    -7.434000000
H     4.536000000    -1.833000000    -7.084000000
H     3.949000000    -0.472000000    -6.781000000
O     0.425000000     6.000000000     1.258000000
H     0.808000000     5.384000000     1.882000000
H     0.573000000     5.597000000     0.402000000
O    -1.078000000    -6.156000000     0.616000000
H    -1.595000000    -6.812000000     1.084000000
H    -0.208000000    -6.549000000     0.538000000
O    -2.164000000    -3.836000000     1.213000000
H    -1.926000000    -4.716000000     0.918000000
H    -1.619000000    -3.252000000     0.686000000
O    -2.451000000     4.361000000     7.307000000
H    -2.208000000     3.916000000     6.495000000
H    -1.826000000     5.083000000     7.381000000
O     5.150000000    -0.211000000    -4.005000000
H     4.456000000     0.243000000    -3.528000000
H     5.714000000    -0.572000000    -3.320000000
O    -4.891000000    -3.579000000     1.327000000
H    -3.944000000    -3.723000000     1.331000000
H    -5.019000000    -2.814000000     1.888000000
O     3.496000000    -5.665000000    -4.595000000
H     3.655000000    -4.916000000    -4.020000000
H     4.368000000    -6.019000000    -4.772000000
O     1.617000000    -6.813000000    -1.093000000
H     1.624000000    -7.767000000    -1.164000000
H     1.291000000    -6.512000000    -1.941000000
O     4.680000000    -3.730000000     0.779000000
H     3.763000000    -3.777000000     0.508000000
H     4.710000000    -4.208000000     1.607000000
O    -0.141000000     2.177000000     5.839000000
H     0.144000000     2.812000000     5.182000000
H    -0.942000000     1.799000000     5.476000000
O    -4.573000000     3.770000000    -0.740000000
H    -4.169000000     4.283000000    -0.040000000
H    -5.110000000     3.122000000    -0.283000000
O     2.549000000    -0.505000000    -5.415000000
H     2.055000000    -1.076000000    -4.826000000
H     3.434000000    -0.494000000    -5.051000000
O     1.086000000    -0.824000000     4.354000000
H     1.236000000    -1.730000000     4.623000000
H     0.219000000    -0.612000000     4.698000000
O     3.520000000    -3.110000000    -3.286000000
H     3.910000000    -2.515000000    -2.646000000
H     2.660000000    -2.733000000    -3.471000000
O    -1.392000000    -4.526000000    -1.498000000
H    -0.583000000    -4.335000000    -1.972000000
H    -1.210000000    -5.340000000    -1.030000000
O    -0.986000000    -0.170000000    -4.449000000
H    -0.570000000     0.681000000    -4.580000000
H    -0.304000000    -0.711000000    -4.050000000
O     2.785000000     3.217000000     1.351000000
H     3.741000000     3.214000000     1.376000000
H     2.567000000     3.646000000     0.524000000
O    -4.204000000    -4.553000000    -2.489000000
H    -3.627000000    -4.414000000    -1.738000000
H    -3.979000000    -3.849000000    -3.097000000
O     1.776000000    -3.359000000     2.355000000
H     2.268000000    -4.020000000     2.843000000
H     1.839000000    -3.639000000     1.442000000
O    -3.771000000     5.588000000     1.064000000
H    -4.416000000     6.270000000     1.252000000
H    -3.108000000     5.692000000     1.747000000
O     3.440000000     1.376000000    -2.103000000
H     3.580000000     0.489000000    -1.771000000
H     3.539000000     1.938000000    -1.335000000
O    -3.297000000     1.925000000    -2.392000000
H    -3.537000000     2.564000000    -1.721000000
H    -3.341000000     2.414000000    -3.214000000
O     0.030000000     2.099000000    -5.704000000
H     0.931000000     2.312000000    -5.945000000
H    -0.327000000     2.918000000    -5.361000000
O     4.068000000    -1.332000000    -0.981000000
H     5.021000000    -1.270000000    -1.038000000
H     3.910000000    -1.943000000    -0.261000000
O     0.277000000     5.143000000     4.552000000
H     0.623000000     5.902000000     5.021000000
H     0.974000000     4.489000000     4.607000000
O    -0.944000000    -3.216000000     3.747000000
H    -1.639000000    -3.277000000     3.091000000
H    -0.163000000    -3.542000000     3.300000000
O    -5.103000000     3.410000000     2.406000000
H    -4.651000000     4.044000000     1.848000000
H    -5.779000000     3.034000000     1.842000000
O    -4.032000000     0.484000000     5.635000000
H    -3.839000000     0.917000000     6.466000000
H    -3.945000000     1.175000000     4.978000000
O     2.175000000    -4.339000000    -0.242000000
H     1.944000000    -3.817000000    -1.010000000
H     2.095000000    -5.246000000    -0.536000000
O    -1.884000000     5.894000000     2.914000000
H    -1.257000000     6.481000000     2.492000000
H    -1.433000000     5.589000000     3.701000000
O    -2.991000000    -0.828000000    -6.123000000
H    -2.341000000    -0.258000000    -5.713000000
H    -3.663000000    -0.946000000    -5.451000000
