161
-3058.51803
C     0.518000000     0.898000000    -1.096000000
H     1.004000000     1.634000000    -1.731000000
C    -0.418000000     1.224000000    -0.140000000
H    -0.827000000     2.230000000    -0.169000000
C    -0.854000000     0.306000000     0.829000000
C    -1.754000000     0.748000000     1.921000000
H    -2.019000000     1.805000000     1.856000000
H    -2.662000000     0.147000000     2.002000000
H    -1.128000000     0.681000000     2.814000000
C    -0.390000000    -0.974000000     0.793000000
H    -0.828000000    -1.716000000     1.456000000
C     0.540000000    -1.313000000    -0.134000000
H     0.942000000    -2.322000000    -0.175000000
C     1.007000000    -0.377000000    -1.080000000
C     2.025000000    -0.870000000    -2.066000000
O     2.414000000    -1.979000000    -2.144000000
O     2.431000000    -0.121000000    -2.937000000
O     1.589000000     4.103000000    -0.250000000
H     0.757000000     4.442000000     0.080000000
H     1.952000000     3.606000000     0.483000000
O     2.005000000    -6.283000000    -2.260000000
H     1.652000000    -6.087000000    -3.128000000
H     1.899000000    -7.230000000    -2.166000000
O    -2.970000000    -0.324000000     7.097000000
H    -2.104000000     0.068000000     6.988000000
H    -2.970000000    -0.659000000     7.994000000
O    -3.184000000     6.152000000    -0.580000000
H    -2.832000000     6.394000000     0.276000000
H    -3.066000000     6.935000000    -1.118000000
O     5.144000000    -0.134000000    -3.197000000
H     5.446000000     0.763000000    -3.058000000
H     4.206000000    -0.104000000    -3.004000000
O     4.396000000    -2.590000000     0.620000000
H     4.496000000    -3.259000000     1.297000000
H     3.886000000    -3.019000000    -0.068000000
O     0.681000000    -0.565000000     4.469000000
H     1.007000000    -1.460000000     4.565000000
H     1.340000000    -0.127000000     3.930000000
O    -4.565000000     3.935000000     0.198000000
H    -4.299000000     4.763000000    -0.202000000
H    -4.721000000     3.350000000    -0.543000000
O    -2.901000000    -5.512000000     2.543000000
H    -2.201000000    -5.299000000     3.161000000
H    -2.493000000    -5.430000000     1.681000000
O     1.677000000    -5.535000000     1.853000000
H     2.350000000    -6.184000000     1.646000000
H     1.399000000    -5.199000000     1.001000000
O     5.971000000    -2.490000000    -1.757000000
H     5.516000000    -1.939000000    -2.395000000
H     5.504000000    -2.340000000    -0.935000000
O    -2.168000000    -0.534000000    -2.050000000
H    -1.400000000    -0.114000000    -1.663000000
H    -2.891000000     0.062000000    -1.857000000
O     4.923000000     3.772000000    -5.558000000
H     4.396000000     3.213000000    -4.987000000
H     5.372000000     3.160000000    -6.142000000
O    -4.145000000    -2.734000000     5.887000000
H    -3.984000000    -2.133000000     6.615000000
H    -3.341000000    -2.703000000     5.368000000
O    -0.447000000     0.775000000     6.786000000
H    -0.090000000     0.560000000     5.924000000
H    -0.563000000     1.725000000     6.768000000
O    -0.594000000     0.147000000    -6.941000000
H    -0.936000000     0.861000000    -6.403000000
H    -0.213000000    -0.465000000    -6.311000000
O    -5.377000000     1.779000000     3.403000000
H    -5.434000000     0.827000000     3.314000000
H    -5.356000000     1.931000000     4.348000000
O    -7.303000000     1.438000000     1.045000000
H    -6.703000000     1.435000000     1.791000000
H    -8.083000000     1.889000000     1.367000000
O     6.710000000     2.380000000    -3.584000000
H     7.136000000     3.192000000    -3.858000000
H     6.077000000     2.654000000    -2.920000000
O    -0.334000000    -1.373000000    -4.233000000
H    -1.091000000    -0.996000000    -3.784000000
H     0.422000000    -0.964000000    -3.812000000
O     2.743000000     2.531000000    -3.820000000
H     3.396000000     2.555000000    -3.120000000
H     2.298000000     1.692000000    -3.703000000
O    -4.519000000     0.659000000    -0.511000000
H    -3.934000000     1.222000000    -0.004000000
H    -4.612000000    -0.131000000     0.020000000
O     0.915000000     2.815000000     2.645000000
H     0.287000000     2.102000000     2.531000000
H     1.768000000     2.382000000     2.666000000
O     4.096000000    -3.309000000    -4.365000000
H     4.115000000    -2.621000000    -5.031000000
H     3.754000000    -2.875000000    -3.583000000
O    -0.626000000    -4.634000000    -3.808000000
H     0.082000000    -3.992000000    -3.755000000
H    -0.309000000    -5.288000000    -4.432000000
O    -2.779000000    -3.135000000    -1.311000000
H    -2.201000000    -2.420000000    -1.579000000
H    -3.237000000    -3.386000000    -2.113000000
O     1.843000000    -5.244000000    -4.788000000
H     2.480000000    -4.545000000    -4.641000000
H     2.057000000    -5.583000000    -5.657000000
O     6.165000000    -5.180000000    -1.965000000
H     6.197000000    -4.243000000    -1.774000000
H     5.258000000    -5.341000000    -2.224000000
O    -0.667000000     3.706000000     6.468000000
H    -0.126000000     4.395000000     6.853000000
H    -1.062000000     4.114000000     5.698000000
O     4.361000000     0.381000000     0.145000000
H     4.282000000    -0.557000000    -0.027000000
H     4.010000000     0.493000000     1.028000000
O     3.085000000     0.167000000     3.064000000
H     3.152000000    -0.780000000     2.945000000
H     3.600000000     0.347000000     3.851000000
O    -4.646000000    -1.893000000     0.820000000
H    -3.987000000    -2.512000000     0.506000000
H    -5.447000000    -2.142000000     0.359000000
O     2.512000000    -1.144000000    -5.583000000
H     2.395000000    -0.687000000    -4.750000000
H     2.821000000    -0.468000000    -6.186000000
O    -2.963000000     3.884000000    -3.179000000
H    -2.862000000     4.764000000    -2.816000000
H    -3.890000000     3.679000000    -3.054000000
O    -5.393000000    -0.982000000     3.074000000
H    -4.960000000    -1.679000000     3.567000000
H    -5.342000000    -1.266000000     2.162000000
O     4.700000000     2.769000000    -1.829000000
H     4.631000000     2.091000000    -1.158000000
H     4.821000000     3.582000000    -1.337000000
O    -1.356000000    -4.685000000     0.277000000
H    -1.768000000    -4.028000000    -0.284000000
H    -1.216000000    -5.437000000    -0.298000000
O    -1.458000000    -2.459000000     4.949000000
H    -0.806000000    -2.701000000     5.607000000
H    -1.213000000    -1.572000000     4.683000000
O     1.000000000     3.153000000    -6.108000000
H     0.174000000     2.792000000    -5.785000000
H     1.617000000     3.021000000    -5.388000000
O     2.022000000    -2.641000000     2.671000000
H     1.483000000    -2.449000000     1.904000000
H     2.331000000    -3.535000000     2.529000000
O    -1.608000000     2.093000000    -5.022000000
H    -1.914000000     2.720000000    -4.366000000
H    -2.340000000     1.487000000    -5.134000000
O    -0.466000000    -4.908000000     3.455000000
H    -0.097000000    -4.151000000     3.910000000
H     0.267000000    -5.265000000     2.952000000
O    -3.648000000     4.085000000     3.120000000
H    -3.782000000     4.238000000     2.185000000
H    -4.056000000     3.235000000     3.284000000
O     3.664000000     5.937000000    -1.010000000
H     2.909000000     5.350000000    -1.034000000
H     3.949000000     5.923000000    -0.097000000
O     0.674000000    -2.910000000    -6.430000000
H     0.171000000    -2.754000000    -5.630000000
H     1.539000000    -2.545000000    -6.245000000
O     2.594000000    -4.233000000    -0.651000000
H     2.666000000    -3.503000000    -1.265000000
H     2.607000000    -5.014000000    -1.205000000
O    -0.659000000     6.020000000     1.425000000
H    -0.023000000     6.097000000     2.136000000
H    -1.510000000     6.106000000     1.853000000
O    -1.438000000     5.078000000     4.485000000
H    -0.705000000     5.538000000     4.075000000
H    -2.030000000     4.878000000     3.760000000
