161
-3051.26654
C     0.902000000    -0.413000000    -1.090000000
H     1.660000000    -0.617000000    -1.842000000
C     1.227000000     0.453000000    -0.058000000
H     2.212000000     0.911000000    -0.014000000
C     0.283000000     0.703000000     0.909000000
C     0.709000000     1.615000000     2.041000000
H    -0.128000000     1.699000000     2.737000000
H     1.660000000     1.318000000     2.489000000
H     0.876000000     2.612000000     1.628000000
C    -1.057000000     0.132000000     0.890000000
H    -1.834000000     0.343000000     1.620000000
C    -1.378000000    -0.698000000    -0.140000000
H    -2.388000000    -1.097000000    -0.085000000
C    -0.395000000    -0.979000000    -1.169000000
C    -0.696000000    -1.797000000    -2.321000000
O    -1.873000000    -2.127000000    -2.429000000
O     0.213000000    -2.054000000    -3.161000000
O    -1.186000000    -5.368000000    -5.331000000
H    -1.988000000    -5.831000000    -5.577000000
H    -1.071000000    -5.566000000    -4.402000000
O     6.773000000     0.041000000    -0.845000000
H     6.158000000     0.766000000    -0.732000000
H     6.219000000    -0.715000000    -1.042000000
O    -6.269000000    -2.927000000    -1.371000000
H    -6.169000000    -1.984000000    -1.498000000
H    -5.413000000    -3.292000000    -1.598000000
O    -3.131000000     0.888000000    -2.164000000
H    -2.821000000     0.138000000    -1.656000000
H    -2.338000000     1.384000000    -2.368000000
O     3.097000000     4.585000000     3.662000000
H     2.397000000     5.065000000     4.105000000
H     3.131000000     4.968000000     2.785000000
O    -5.902000000     0.013000000    -1.735000000
H    -5.873000000     0.264000000    -0.811000000
H    -5.107000000     0.391000000    -2.110000000
O    -0.294000000     1.725000000     7.223000000
H    -0.171000000     0.776000000     7.199000000
H    -0.871000000     1.872000000     7.973000000
O     4.338000000     5.437000000     1.484000000
H     5.080000000     5.324000000     0.890000000
H     4.273000000     6.384000000     1.608000000
O    -0.455000000     3.897000000     5.706000000
H    -0.284000000     3.017000000     6.041000000
H    -0.626000000     4.422000000     6.488000000
O    -3.896000000    -4.042000000    -1.738000000
H    -3.346000000    -3.323000000    -2.049000000
H    -3.328000000    -4.542000000    -1.152000000
O    -1.419000000    -1.772000000     3.462000000
H    -1.376000000    -1.324000000     2.617000000
H    -0.809000000    -2.504000000     3.376000000
O     2.787000000    -5.480000000    -3.270000000
H     2.164000000    -6.206000000    -3.270000000
H     3.435000000    -5.719000000    -3.932000000
O     2.224000000    -0.403000000     5.703000000
H     2.357000000    -0.878000000     4.883000000
H     2.910000000     0.265000000     5.706000000
O     5.385000000    -2.269000000    -1.313000000
H     4.653000000    -2.305000000    -0.698000000
H     5.041000000    -2.656000000    -2.119000000
O    -4.398000000    -1.201000000     2.190000000
H    -3.966000000    -0.999000000     3.020000000
H    -4.619000000    -2.130000000     2.256000000
O     3.314000000    -1.787000000     1.014000000
H     3.781000000    -1.081000000     1.461000000
H     2.431000000    -1.761000000     1.382000000
O    -4.281000000    -5.934000000    -3.823000000
H    -5.115000000    -5.547000000    -4.090000000
H    -3.940000000    -5.333000000    -3.160000000
O    -5.101000000     0.344000000     5.621000000
H    -4.228000000     0.635000000     5.360000000
H    -4.944000000    -0.421000000     6.174000000
O    -2.407000000    -5.585000000     0.491000000
H    -2.384000000    -5.763000000     1.431000000
H    -1.501000000    -5.701000000     0.203000000
O    -0.596000000    -5.180000000    -2.389000000
H    -0.114000000    -5.390000000    -1.589000000
H    -0.533000000    -4.228000000    -2.463000000
O    -4.545000000     3.350000000    -2.313000000
H    -4.685000000     3.380000000    -3.260000000
H    -4.376000000     2.427000000    -2.125000000
O    -0.982000000     3.545000000     0.446000000
H    -0.503000000     2.844000000     0.003000000
H    -1.765000000     3.117000000     0.794000000
O    -1.990000000     5.925000000     2.695000000
H    -1.602000000     5.054000000     2.783000000
H    -1.418000000     6.379000000     2.075000000
O    -3.947000000     4.206000000     3.259000000
H    -4.826000000     4.557000000     3.404000000
H    -3.449000000     4.945000000     2.908000000
O     1.034000000     3.685000000    -1.526000000
H     0.802000000     3.981000000    -0.646000000
H     1.967000000     3.478000000    -1.470000000
O    -0.401000000     1.878000000    -2.802000000
H     0.204000000     1.453000000    -3.411000000
H     0.114000000     2.580000000    -2.404000000
O    -1.881000000    -0.394000000     5.783000000
H    -2.118000000     0.480000000     5.471000000
H    -1.800000000    -0.919000000     4.986000000
O     5.137000000     3.501000000    -3.919000000
H     4.576000000     3.399000000    -4.687000000
H     4.696000000     3.001000000    -3.232000000
O    -3.527000000     2.575000000     1.127000000
H    -3.817000000     3.105000000     1.869000000
H    -4.262000000     1.988000000     0.950000000
O     2.915000000    -2.692000000    -3.198000000
H     3.070000000    -3.636000000    -3.185000000
H     1.962000000    -2.606000000    -3.164000000
O     3.611000000     0.772000000    -2.888000000
H     4.332000000     0.266000000    -3.261000000
H     2.825000000     0.403000000    -3.292000000
O     4.674000000     0.462000000     2.238000000
H     5.092000000     1.126000000     1.691000000
H     4.365000000     0.943000000     3.006000000
O    -0.768000000    -1.436000000    -6.332000000
H    -1.290000000    -1.157000000    -5.580000000
H    -0.401000000    -2.280000000    -6.068000000
O     3.640000000     2.872000000    -1.086000000
H     3.602000000     1.945000000    -1.322000000
H     4.496000000     2.979000000    -0.672000000
O     3.989000000     2.057000000     4.677000000
H     3.643000000     2.856000000     4.278000000
H     4.547000000     2.368000000     5.390000000
O    -2.613000000     1.925000000     4.652000000
H    -2.924000000     2.465000000     3.926000000
H    -2.033000000     2.502000000     5.149000000
O     5.861000000     2.365000000     0.617000000
H     6.004000000     3.311000000     0.658000000
H     6.671000000     1.986000000     0.958000000
O     0.789000000    -3.620000000    -5.999000000
H     1.499000000    -3.536000000    -5.362000000
H     0.135000000    -4.162000000    -5.558000000
O    -6.199000000     0.669000000     0.839000000
H    -7.021000000     0.212000000     1.014000000
H    -5.520000000     0.059000000     1.128000000
O    -4.650000000    -3.737000000    -6.608000000
H    -4.212000000    -3.345000000    -5.853000000
H    -5.136000000    -4.478000000    -6.245000000
O     2.618000000    -5.321000000    -0.575000000
H     3.030000000    -5.344000000    -1.438000000
H     3.067000000    -4.612000000    -0.114000000
O    -3.067000000    -3.302000000    -4.595000000
H    -2.655000000    -2.927000000    -3.816000000
H    -2.437000000    -3.950000000    -4.910000000
O     2.951000000    -2.768000000     4.077000000
H     3.048000000    -2.858000000     5.025000000
H     3.515000000    -3.450000000     3.713000000
O     6.166000000    -0.889000000     3.986000000
H     5.877000000    -1.800000000     3.938000000
H     5.566000000    -0.417000000     3.408000000
O    -0.966000000     6.305000000    -0.079000000
H    -1.082000000     5.364000000     0.048000000
H    -1.681000000     6.558000000    -0.662000000
O     1.216000000     0.005000000    -4.491000000
H     0.784000000    -0.777000000    -4.147000000
H     1.698000000    -0.305000000    -5.257000000
O     4.607000000    -1.006000000    -5.029000000
H     5.380000000    -1.490000000    -5.318000000
H     4.068000000    -1.658000000    -4.582000000
O     0.690000000     6.013000000     4.164000000
H     0.225000000     5.265000000     4.540000000
H     0.605000000     6.703000000     4.822000000
