161
-3036.59782
C     0.346000000    -1.380000000    -0.367000000
H     0.760000000    -2.381000000    -0.454000000
C     1.175000000    -0.436000000     0.156000000
H     2.160000000    -0.698000000     0.535000000
C     0.767000000     0.887000000     0.336000000
C     1.732000000     1.911000000     0.966000000
H     2.632000000     2.034000000     0.359000000
H     1.301000000     2.914000000     0.983000000
H     1.989000000     1.631000000     1.990000000
C    -0.539000000     1.238000000    -0.038000000
H    -0.731000000     2.308000000    -0.070000000
C    -1.478000000     0.249000000    -0.452000000
H    -2.526000000     0.531000000    -0.505000000
C    -1.019000000    -1.136000000    -0.560000000
C    -1.968000000    -2.270000000    -0.780000000
O    -3.132000000    -2.071000000    -0.954000000
O    -1.465000000    -3.332000000    -1.140000000
O     2.366000000    -3.348000000     4.997000000
H     1.429000000    -3.432000000     5.174000000
H     2.421000000    -3.228000000     4.049000000
O    -4.238000000    -6.807000000    -1.469000000
H    -3.846000000    -6.295000000    -0.762000000
H    -4.141000000    -7.717000000    -1.189000000
O     2.293000000     7.872000000    -0.803000000
H     3.150000000     8.288000000    -0.892000000
H     2.490000000     6.971000000    -0.543000000
O    -5.009000000    -5.015000000    -3.351000000
H    -4.844000000    -5.738000000    -2.745000000
H    -5.268000000    -4.286000000    -2.789000000
O     4.724000000    -0.675000000    -0.186000000
H     4.239000000    -0.895000000    -0.981000000
H     4.605000000    -1.433000000     0.386000000
O    -4.288000000    -0.925000000    -3.309000000
H    -3.893000000    -1.178000000    -4.143000000
H    -3.828000000    -1.452000000    -2.656000000
O     3.064000000     5.806000000     1.934000000
H     2.620000000     5.369000000     2.660000000
H     3.431000000     5.092000000     1.413000000
O     0.839000000    -7.418000000    -0.819000000
H     0.190000000    -6.754000000    -0.585000000
H     1.335000000    -7.025000000    -1.537000000
O    -5.009000000     2.492000000    -0.919000000
H    -5.289000000     3.407000000    -0.937000000
H    -4.092000000     2.517000000    -1.194000000
O    -6.373000000    -0.732000000     1.784000000
H    -5.496000000    -1.102000000     1.679000000
H    -6.923000000    -1.481000000     2.015000000
O    -0.014000000     2.164000000     6.168000000
H    -0.941000000     2.030000000     5.969000000
H     0.426000000     1.412000000     5.771000000
O     2.137000000    -0.229000000    -4.714000000
H     1.675000000     0.367000000    -4.125000000
H     1.938000000     0.098000000    -5.591000000
O    -3.409000000     6.222000000    -2.172000000
H    -4.113000000     6.044000000    -1.547000000
H    -2.941000000     5.391000000    -2.249000000
O    -6.642000000     0.146000000    -2.203000000
H    -5.939000000    -0.115000000    -2.798000000
H    -6.190000000     0.483000000    -1.430000000
O    -1.084000000     1.715000000    -4.269000000
H    -0.325000000     1.716000000    -3.686000000
H    -0.754000000     2.074000000    -5.093000000
O    -0.279000000     4.911000000    -2.896000000
H     0.356000000     4.701000000    -2.211000000
H     0.252000000     5.237000000    -3.623000000
O     3.035000000    -3.580000000    -0.291000000
H     3.824000000    -3.982000000    -0.656000000
H     2.393000000    -3.626000000    -0.999000000
O     2.760000000    -0.740000000     5.007000000
H     2.917000000    -1.678000000     5.113000000
H     3.161000000    -0.524000000     4.165000000
O    -5.135000000    -5.428000000     2.227000000
H    -4.437000000    -5.189000000     1.616000000
H    -4.676000000    -5.766000000     2.995000000
O     1.527000000     4.430000000    -1.074000000
H     1.369000000     4.893000000    -0.252000000
H     2.475000000     4.473000000    -1.195000000
O    -4.143000000    -2.360000000     1.506000000
H    -3.534000000    -1.787000000     1.972000000
H    -3.920000000    -2.245000000     0.582000000
O    -0.362000000     5.415000000     3.117000000
H    -1.139000000     5.773000000     3.547000000
H     0.372000000     5.749000000     3.632000000
O    -2.551000000     3.286000000    -2.355000000
H    -2.450000000     2.539000000    -2.945000000
H    -1.699000000     3.722000000    -2.373000000
O     2.560000000     4.536000000     4.226000000
H     2.872000000     4.705000000     5.115000000
H     1.923000000     3.829000000     4.325000000
O    -4.608000000     5.267000000     0.069000000
H    -5.218000000     5.666000000     0.688000000
H    -3.759000000     5.651000000     0.287000000
O     3.412000000    -1.433000000    -2.548000000
H     3.051000000    -0.889000000    -3.248000000
H     3.108000000    -2.317000000    -2.751000000
O    -1.696000000    -0.927000000    -5.104000000
H    -1.459000000    -0.158000000    -4.586000000
H    -1.259000000    -1.656000000    -4.664000000
O     4.172000000     4.443000000    -0.332000000
H     4.908000000     4.706000000    -0.884000000
H     4.501000000     3.694000000     0.166000000
O    -5.587000000    -3.097000000    -1.347000000
H    -4.710000000    -2.826000000    -1.076000000
H    -6.082000000    -3.156000000    -0.530000000
O     1.288000000    -3.717000000    -2.455000000
H     1.048000000    -3.917000000    -3.360000000
H     0.468000000    -3.796000000    -1.967000000
O     4.729000000    -0.361000000     3.065000000
H     4.882000000     0.506000000     3.439000000
H     5.605000000    -0.709000000     2.899000000
O     0.024000000    -0.339000000     4.571000000
H     0.908000000    -0.642000000     4.778000000
H    -0.473000000    -0.482000000     5.376000000
O    -1.827000000    -6.312000000    -5.188000000
H    -1.810000000    -6.400000000    -6.141000000
H    -1.875000000    -5.368000000    -5.036000000
O     4.220000000     1.460000000    -2.131000000
H     4.673000000     1.979000000    -1.467000000
H     4.453000000     0.554000000    -1.927000000
O     3.405000000     2.003000000     5.649000000
H     4.052000000     2.267000000     4.994000000
H     3.378000000     1.049000000     5.587000000
O     1.425000000     1.304000000    -2.721000000
H     2.337000000     1.359000000    -2.435000000
H     0.915000000     1.452000000    -1.924000000
O    -3.219000000    -4.857000000     0.250000000
H    -3.056000000    -4.144000000    -0.367000000
H    -2.348000000    -5.129000000     0.539000000
O     0.078000000    -4.889000000     0.482000000
H    -0.375000000    -4.239000000    -0.054000000
H     0.818000000    -4.415000000     0.861000000
O    -2.268000000    -3.784000000    -4.115000000
H    -1.961000000    -3.575000000    -3.233000000
H    -3.081000000    -4.272000000    -3.976000000
O    -3.821000000     2.965000000     1.865000000
H    -4.280000000     2.610000000     1.104000000
H    -2.894000000     2.898000000     1.637000000
O    -0.046000000    -2.672000000     2.395000000
H    -0.691000000    -2.744000000     3.099000000
H     0.190000000    -1.744000000     2.380000000
O     5.298000000     2.111000000     0.630000000
H     5.054000000     1.187000000     0.689000000
H     6.238000000     2.122000000     0.810000000
O    -2.730000000    -0.810000000     3.204000000
H    -3.508000000    -0.552000000     3.697000000
H    -2.006000000    -0.694000000     3.819000000
O     2.502000000    -6.394000000    -2.728000000
H     2.140000000    -6.750000000    -3.539000000
H     2.500000000    -5.446000000    -2.861000000
O     2.461000000    -3.411000000     2.348000000
H     1.566000000    -3.089000000     2.238000000
H     2.809000000    -3.461000000     1.457000000
O     5.395000000     2.444000000     3.672000000
H     5.515000000     3.342000000     3.982000000
H     6.163000000     2.274000000     3.127000000
O    -1.973000000     6.154000000     0.771000000
H    -1.288000000     5.930000000     1.401000000
H    -1.507000000     6.587000000     0.055000000
O    -1.264000000    -7.019000000     1.926000000
H    -0.617000000    -7.414000000     2.511000000
H    -0.786000000    -6.322000000     1.477000000
