161
-3043.75577
C     0.494000000    -1.378000000    -0.237000000
H     1.015000000    -2.326000000    -0.341000000
C     1.130000000    -0.435000000     0.593000000
H     2.073000000    -0.621000000     1.099000000
C     0.565000000     0.851000000     0.779000000
C     1.190000000     1.951000000     1.544000000
H     1.252000000     1.473000000     2.524000000
H     2.167000000     2.230000000     1.143000000
H     0.509000000     2.803000000     1.605000000
C    -0.673000000     1.120000000     0.115000000
H    -1.064000000     2.122000000     0.268000000
C    -1.354000000     0.133000000    -0.636000000
H    -2.252000000     0.335000000    -1.215000000
C    -0.771000000    -1.138000000    -0.822000000
C    -1.254000000    -2.079000000    -1.911000000
O    -2.302000000    -1.863000000    -2.443000000
O    -0.725000000    -3.185000000    -2.060000000
O     2.041000000    -3.477000000     1.798000000
H     2.651000000    -3.310000000     1.079000000
H     2.101000000    -2.696000000     2.349000000
O    -4.032000000    -7.017000000    -2.449000000
H    -3.776000000    -6.164000000    -2.098000000
H    -3.891000000    -7.626000000    -1.724000000
O     5.325000000     4.448000000    -1.243000000
H     5.512000000     3.904000000    -2.008000000
H     5.537000000     3.889000000    -0.495000000
O     2.402000000    -6.630000000     2.988000000
H     2.758000000    -6.110000000     3.709000000
H     2.184000000    -5.987000000     2.313000000
O    -6.076000000    -4.516000000    -4.394000000
H    -6.327000000    -5.275000000    -3.868000000
H    -5.520000000    -3.995000000    -3.813000000
O     4.774000000    -0.616000000     0.915000000
H     4.304000000    -0.219000000     0.182000000
H     4.807000000    -1.549000000     0.702000000
O    -4.531000000    -2.834000000    -3.127000000
H    -5.098000000    -2.554000000    -2.408000000
H    -3.728000000    -2.325000000    -3.011000000
O     2.571000000     6.705000000     3.437000000
H     2.292000000     7.435000000     2.885000000
H     1.772000000     6.200000000     3.587000000
O     2.349000000    -7.052000000    -2.090000000
H     1.634000000    -6.483000000    -1.808000000
H     2.156000000    -7.243000000    -3.008000000
O    -3.909000000     2.847000000    -2.338000000
H    -3.445000000     3.513000000    -1.829000000
H    -3.236000000     2.467000000    -2.903000000
O    -1.403000000     2.764000000     3.975000000
H    -0.889000000     2.922000000     4.766000000
H    -1.198000000     1.861000000     3.732000000
O    -0.816000000    -7.276000000    -3.437000000
H    -1.442000000    -7.959000000    -3.197000000
H    -1.360000000    -6.526000000    -3.676000000
O     3.777000000     0.621000000    -1.611000000
H     2.826000000     0.578000000    -1.709000000
H     4.063000000     1.211000000    -2.309000000
O    -5.516000000     0.309000000    -2.386000000
H    -5.385000000     0.042000000    -1.477000000
H    -5.148000000     1.192000000    -2.432000000
O     0.345000000     0.686000000    -5.478000000
H     0.819000000     1.051000000    -6.225000000
H     0.317000000    -0.256000000    -5.649000000
O    -3.821000000     1.847000000     1.328000000
H    -3.197000000     2.311000000     0.769000000
H    -3.319000000     1.119000000     1.695000000
O     4.276000000     1.017000000     6.373000000
H     3.984000000     1.760000000     5.845000000
H     4.277000000     1.347000000     7.271000000
O     3.776000000    -2.944000000    -2.881000000
H     4.193000000    -3.756000000    -3.169000000
H     3.077000000    -2.795000000    -3.519000000
O     1.916000000    -1.557000000     3.842000000
H     1.810000000    -2.054000000     4.653000000
H     2.719000000    -1.054000000     3.972000000
O    -3.236000000     5.766000000     2.580000000
H    -3.382000000     4.839000000     2.765000000
H    -3.996000000     6.209000000     2.957000000
O    -5.001000000    -4.153000000     0.811000000
H    -4.247000000    -4.394000000     0.273000000
H    -5.193000000    -4.940000000     1.321000000
O     0.163000000     6.839000000    -2.257000000
H    -0.528000000     7.300000000    -1.782000000
H     0.254000000     6.004000000    -1.798000000
O    -0.183000000     0.070000000     4.207000000
H     0.617000000    -0.292000000     3.826000000
H    -0.163000000    -0.215000000     5.121000000
O    -4.636000000    -1.005000000    -0.256000000
H    -4.605000000    -1.276000000     0.661000000
H    -3.809000000    -1.317000000    -0.625000000
O    -1.098000000     7.350000000     2.048000000
H    -0.471000000     6.727000000     2.414000000
H    -1.926000000     6.869000000     2.021000000
O    -0.983000000     2.403000000    -3.439000000
H    -1.315000000     1.943000000    -4.210000000
H    -0.952000000     3.322000000    -3.704000000
O     0.063000000     5.176000000     3.196000000
H    -0.444000000     4.423000000     3.500000000
H    -0.047000000     5.171000000     2.245000000
O    -3.184000000     5.500000000    -0.700000000
H    -3.498000000     5.959000000    -1.479000000
H    -3.882000000     5.616000000    -0.055000000
O     5.748000000    -1.052000000    -2.454000000
H     5.174000000    -0.465000000    -1.962000000
H     5.233000000    -1.852000000    -2.565000000
O    -0.079000000    -2.249000000    -6.160000000
H     0.277000000    -2.666000000    -5.376000000
H    -0.917000000    -2.688000000    -6.306000000
O     0.866000000     3.643000000    -1.153000000
H     0.591000000     2.727000000    -1.197000000
H     1.588000000     3.646000000    -0.525000000
O     1.329000000     3.571000000     5.872000000
H     1.664000000     3.326000000     6.734000000
H     2.061000000     3.411000000     5.276000000
O    -5.130000000     3.297000000     3.416000000
H    -5.680000000     3.479000000     2.654000000
H    -4.363000000     2.853000000     3.057000000
O     1.303000000    -3.262000000    -3.931000000
H     1.864000000    -3.996000000    -3.677000000
H     0.720000000    -3.136000000    -3.182000000
O     4.641000000    -0.301000000     3.737000000
H     4.794000000    -0.376000000     2.795000000
H     4.319000000     0.593000000     3.856000000
O    -2.061000000    -0.460000000     2.437000000
H    -1.619000000    -0.609000000     1.601000000
H    -1.349000000    -0.369000000     3.071000000
O     4.213000000     3.567000000     5.106000000
H     4.218000000     4.397000000     5.583000000
H     5.132000000     3.409000000     4.892000000
O     1.548000000     1.343000000    -3.157000000
H     1.445000000     1.137000000    -4.086000000
H     0.669000000     1.584000000    -2.866000000
O    -2.776000000    -4.546000000    -0.611000000
H    -2.125000000    -4.609000000     0.088000000
H    -2.294000000    -4.186000000    -1.355000000
O     0.677000000    -5.168000000    -0.945000000
H     0.114000000    -4.491000000    -1.320000000
H     0.463000000    -5.167000000    -0.012000000
O    -1.839000000    -4.344000000    -4.155000000
H    -1.209000000    -4.027000000    -3.508000000
H    -2.638000000    -3.849000000    -3.974000000
O    -1.053000000     4.717000000     0.704000000
H    -0.530000000     4.429000000    -0.044000000
H    -1.918000000     4.899000000     0.336000000
O    -0.833000000    -4.642000000     1.204000000
H    -1.498000000    -4.409000000     1.851000000
H    -0.139000000    -3.995000000     1.330000000
O     6.546000000     2.232000000     1.088000000
H     6.528000000     1.282000000     1.204000000
H     7.354000000     2.399000000     0.602000000
O    -4.737000000    -1.337000000     2.662000000
H    -4.741000000    -1.735000000     3.533000000
H    -3.967000000    -0.770000000     2.661000000
O     1.519000000    -6.231000000    -4.698000000
H     0.624000000    -6.448000000    -4.439000000
H     1.479000000    -6.144000000    -5.650000000
O     4.076000000    -3.027000000    -0.125000000
H     3.964000000    -3.007000000    -1.075000000
H     4.254000000    -3.945000000     0.076000000
O    -1.166000000    -7.305000000     1.326000000
H    -0.618000000    -7.677000000     2.018000000
H    -0.931000000    -6.378000000     1.307000000
