161
-3043.75197
C     1.333000000    -0.341000000    -0.472000000
H     2.369000000    -0.642000000    -0.608000000
C     1.043000000     0.475000000     0.626000000
H     1.907000000     0.777000000     1.213000000
C    -0.299000000     0.664000000     0.995000000
C    -0.578000000     1.548000000     2.184000000
H     0.102000000     2.385000000     2.353000000
H    -1.588000000     1.956000000     2.111000000
H    -0.663000000     1.060000000     3.157000000
C    -1.311000000     0.106000000     0.256000000
H    -2.364000000     0.283000000     0.457000000
C    -0.976000000    -0.684000000    -0.892000000
H    -1.727000000    -1.211000000    -1.475000000
C     0.364000000    -0.949000000    -1.227000000
C     0.691000000    -1.665000000    -2.540000000
O    -0.140000000    -1.811000000    -3.407000000
O     1.843000000    -1.957000000    -2.725000000
O    -5.132000000     1.888000000     2.267000000
H    -4.659000000     2.683000000     2.511000000
H    -4.756000000     1.635000000     1.424000000
O     3.355000000     2.783000000    -4.995000000
H     2.600000000     3.200000000    -4.579000000
H     3.241000000     1.850000000    -4.816000000
O    -0.481000000    -3.561000000    -5.902000000
H    -1.160000000    -2.888000000    -5.946000000
H    -0.432000000    -3.791000000    -4.974000000
O     0.438000000     4.006000000    -3.468000000
H     0.069000000     3.143000000    -3.280000000
H     0.149000000     4.555000000    -2.740000000
O    -2.924000000     3.444000000    -0.646000000
H    -3.003000000     2.725000000    -0.020000000
H    -3.306000000     3.103000000    -1.454000000
O    -4.285000000    -1.466000000    -4.318000000
H    -4.886000000    -1.681000000    -3.605000000
H    -4.797000000    -1.609000000    -5.114000000
O    -0.129000000    -1.267000000     7.178000000
H     0.168000000    -0.510000000     7.681000000
H     0.463000000    -1.302000000     6.426000000
O     5.176000000    -4.007000000    -3.319000000
H     5.104000000    -3.418000000    -2.568000000
H     4.282000000    -4.313000000    -3.471000000
O     2.980000000     4.647000000     0.381000000
H     3.054000000     3.693000000     0.396000000
H     3.601000000     4.945000000     1.045000000
O    -2.232000000    -1.557000000    -6.118000000
H    -2.984000000    -1.523000000    -5.527000000
H    -2.198000000    -0.686000000    -6.513000000
O     0.235000000    -1.977000000     3.060000000
H    -0.510000000    -1.377000000     3.095000000
H     0.873000000    -1.603000000     3.668000000
O    -1.196000000    -3.291000000     1.076000000
H    -0.384000000    -3.101000000     1.547000000
H    -1.527000000    -2.432000000     0.813000000
O    -0.909000000     0.633000000    -4.001000000
H    -0.439000000     0.780000000    -4.822000000
H    -0.705000000    -0.273000000    -3.767000000
O     3.622000000     2.899000000     2.917000000
H     3.179000000     2.500000000     3.666000000
H     4.174000000     2.200000000     2.566000000
O    -3.796000000     4.342000000     2.458000000
H    -3.283000000     3.919000000     3.147000000
H    -3.506000000     5.255000000     2.470000000
O    -0.714000000    -4.205000000     4.709000000
H    -1.614000000    -4.474000000     4.525000000
H    -0.581000000    -3.427000000     4.166000000
O    -0.334000000     4.768000000    -0.662000000
H    -0.925000000     4.020000000    -0.576000000
H     0.130000000     4.805000000     0.174000000
O    -2.006000000    -1.180000000     4.726000000
H    -2.861000000    -1.534000000     4.482000000
H    -1.751000000    -1.681000000     5.500000000
O     1.851000000     2.245000000     5.270000000
H     1.209000000     1.617000000     5.601000000
H     2.673000000     1.989000000     5.687000000
O    -4.434000000    -4.107000000    -1.445000000
H    -3.555000000    -4.465000000    -1.317000000
H    -4.838000000    -4.689000000    -2.089000000
O    -2.275000000    -6.181000000    -4.807000000
H    -1.467000000    -6.194000000    -5.320000000
H    -2.275000000    -5.324000000    -4.382000000
O    -0.640000000     5.573000000     2.170000000
H    -1.034000000     4.900000000     2.724000000
H    -1.352000000     6.190000000     1.999000000
O     4.090000000    -2.690000000    -6.003000000
H     4.056000000    -1.785000000    -5.695000000
H     3.338000000    -2.772000000    -6.590000000
O    -1.661000000     1.366000000     5.466000000
H    -1.637000000     0.444000000     5.210000000
H    -2.286000000     1.397000000     6.191000000
O    -4.394000000     2.921000000     5.163000000
H    -5.152000000     2.759000000     4.602000000
H    -3.909000000     2.095000000     5.155000000
O     3.808000000    -2.963000000    -0.919000000
H     3.267000000    -3.477000000    -0.320000000
H     3.182000000    -2.560000000    -1.520000000
O     4.719000000     0.749000000     1.115000000
H     5.609000000     0.680000000     0.768000000
H     4.207000000     1.108000000     0.390000000
O     1.963000000    -1.195000000     5.121000000
H     2.498000000    -1.988000000     5.162000000
H     2.517000000    -0.556000000     4.673000000
O    -5.622000000    -2.142000000     2.057000000
H    -5.058000000    -2.188000000     2.830000000
H    -6.426000000    -1.729000000     2.372000000
O    -3.449000000     1.288000000    -2.937000000
H    -2.581000000     1.463000000    -3.299000000
H    -3.773000000     0.541000000    -3.441000000
O     0.316000000     5.954000000     5.165000000
H     1.190000000     6.194000000     4.858000000
H     0.189000000     5.059000000     4.851000000
O     2.225000000     5.496000000     3.046000000
H     1.386000000     5.307000000     2.625000000
H     2.760000000     4.722000000     2.873000000
O     1.438000000    -5.164000000     0.181000000
H     0.739000000    -4.659000000    -0.235000000
H     0.990000000    -5.691000000     0.844000000
O     3.205000000     2.112000000    -0.512000000
H     3.568000000     2.145000000    -1.398000000
H     2.414000000     1.580000000    -0.597000000
O     2.129000000    -4.347000000    -3.580000000
H     1.992000000    -3.433000000    -3.331000000
H     1.792000000    -4.850000000    -2.838000000
O    -1.553000000     3.696000000     4.060000000
H    -1.810000000     4.131000000     4.873000000
H    -1.245000000     2.833000000     4.337000000
O     1.210000000    -1.558000000    -6.557000000
H     0.884000000    -2.330000000    -6.093000000
H     0.440000000    -0.999000000    -6.661000000
O    -4.632000000    -1.498000000    -0.554000000
H    -4.498000000    -2.359000000    -0.950000000
H    -4.939000000    -1.687000000     0.332000000
O    -2.305000000    -3.461000000    -3.544000000
H    -1.597000000    -2.827000000    -3.429000000
H    -3.071000000    -2.928000000    -3.760000000
O     4.049000000    -0.496000000     3.507000000
H     4.262000000    -0.027000000     2.700000000
H     4.222000000    -1.415000000     3.302000000
O    -4.913000000     1.097000000    -0.780000000
H    -4.305000000     1.223000000    -1.508000000
H    -4.888000000     0.156000000    -0.606000000
O    -0.104000000    -5.804000000    -2.078000000
H    -0.856000000    -5.822000000    -2.669000000
H    -0.204000000    -6.590000000    -1.540000000
O     5.715000000    -1.116000000    -1.599000000
H     6.443000000    -0.850000000    -1.037000000
H     5.505000000    -2.006000000    -1.314000000
O     0.158000000     1.229000000    -6.359000000
H     0.164000000     2.178000000    -6.484000000
H    -0.139000000     0.878000000    -7.198000000
O     4.055000000     0.714000000     5.917000000
H     4.207000000    -0.091000000     6.411000000
H     4.239000000     0.475000000     5.008000000
O     2.704000000     0.089000000    -4.484000000
H     2.157000000     0.155000000    -5.266000000
H     2.273000000    -0.575000000    -3.945000000
O     2.149000000    -5.789000000    -5.994000000
H     2.072000000    -5.285000000    -5.184000000
H     1.590000000    -6.554000000    -5.854000000
O     4.482000000     1.005000000    -2.737000000
H     4.006000000     0.359000000    -3.258000000
H     5.065000000     0.485000000    -2.184000000
