161
-3040.00702
C     1.381000000    -0.213000000    -0.434000000
H     2.421000000    -0.486000000    -0.588000000
C     0.886000000    -0.479000000     0.852000000
H     1.463000000    -0.970000000     1.631000000
C    -0.414000000    -0.037000000     1.178000000
C    -1.010000000    -0.189000000     2.536000000
H    -0.291000000    -0.740000000     3.146000000
H    -1.181000000     0.819000000     2.922000000
H    -1.878000000    -0.851000000     2.581000000
C    -1.265000000     0.333000000     0.105000000
H    -2.333000000     0.433000000     0.282000000
C    -0.786000000     0.375000000    -1.199000000
H    -1.570000000     0.565000000    -1.928000000
C     0.586000000     0.213000000    -1.476000000
C     1.180000000     0.327000000    -2.872000000
O     0.469000000     0.514000000    -3.796000000
O     2.344000000     0.379000000    -2.943000000
O     0.962000000     0.779000000     5.110000000
H     0.597000000    -0.082000000     4.903000000
H     0.204000000     1.303000000     5.369000000
O    -5.792000000    -3.728000000    -0.368000000
H    -6.070000000    -3.855000000     0.539000000
H    -5.338000000    -2.885000000    -0.363000000
O     1.508000000     4.560000000    -6.413000000
H     1.637000000     3.739000000    -5.937000000
H     0.735000000     4.404000000    -6.955000000
O     0.273000000    -2.385000000     5.816000000
H    -0.640000000    -2.142000000     5.658000000
H     0.373000000    -3.233000000     5.383000000
O     5.760000000     1.935000000    -4.453000000
H     5.546000000     1.070000000    -4.801000000
H     5.427000000     1.921000000    -3.555000000
O     5.231000000    -3.511000000     0.711000000
H     5.329000000    -3.960000000    -0.128000000
H     4.340000000    -3.719000000     0.992000000
O    -1.798000000     2.234000000    -4.302000000
H    -1.650000000     1.298000000    -4.164000000
H    -1.039000000     2.658000000    -3.901000000
O     0.525000000     3.928000000    -3.013000000
H     0.531000000     4.766000000    -3.475000000
H     0.443000000     4.164000000    -2.089000000
O    -3.328000000    -3.026000000    -3.490000000
H    -4.187000000    -2.644000000    -3.667000000
H    -3.125000000    -2.755000000    -2.594000000
O    -3.910000000    -3.038000000     3.593000000
H    -3.100000000    -3.455000000     3.298000000
H    -4.066000000    -3.407000000     4.462000000
O    -2.863000000     5.534000000     4.548000000
H    -3.091000000     5.037000000     3.763000000
H    -1.926000000     5.376000000     4.668000000
O     5.568000000    -2.932000000    -3.199000000
H     5.795000000    -2.358000000    -3.930000000
H     4.643000000    -2.752000000    -3.030000000
O     4.310000000     3.139000000     1.472000000
H     4.513000000     2.575000000     0.726000000
H     3.672000000     2.641000000     1.982000000
O    -4.316000000     1.234000000     3.895000000
H    -3.695000000     1.085000000     4.609000000
H    -4.027000000     2.054000000     3.494000000
O    -0.510000000     2.954000000     6.699000000
H     0.020000000     3.446000000     6.071000000
H    -0.339000000     3.378000000     7.540000000
O    -2.128000000    -5.055000000     2.142000000
H    -1.402000000    -4.680000000     1.643000000
H    -2.534000000    -5.680000000     1.542000000
O    -2.626000000    -0.652000000    -7.418000000
H    -1.816000000    -1.136000000    -7.259000000
H    -3.026000000    -1.094000000    -8.168000000
O    -0.890000000     4.629000000     2.279000000
H    -1.439000000     5.398000000     2.122000000
H    -0.016000000     4.896000000     1.994000000
O    -5.816000000    -1.026000000     3.105000000
H    -5.394000000    -1.881000000     3.192000000
H    -5.172000000    -0.405000000     3.445000000
O    -5.099000000     4.164000000     0.417000000
H    -5.783000000     4.828000000     0.327000000
H    -4.697000000     4.116000000    -0.451000000
O     4.525000000    -3.001000000     4.763000000
H     3.809000000    -2.836000000     4.150000000
H     4.979000000    -3.762000000     4.402000000
O    -0.511000000     3.521000000    -0.430000000
H    -0.407000000     3.985000000     0.400000000
H    -0.136000000     2.655000000    -0.270000000
O    -0.344000000    -1.266000000    -5.734000000
H     0.362000000    -1.063000000    -6.347000000
H    -0.251000000    -0.616000000    -5.037000000
O    -2.123000000    -1.567000000     5.203000000
H    -2.328000000    -0.732000000     5.624000000
H    -2.397000000    -1.451000000     4.294000000
O     2.906000000    -2.349000000    -2.746000000
H     2.352000000    -2.808000000    -2.114000000
H     2.474000000    -1.505000000    -2.875000000
O     3.482000000    -2.556000000    -6.224000000
H     2.908000000    -3.155000000    -5.747000000
H     3.259000000    -2.694000000    -7.145000000
O     1.943000000     4.410000000     5.333000000
H     2.654000000     3.840000000     5.626000000
H     1.684000000     4.053000000     4.484000000
O    -4.654000000    -1.270000000     0.068000000
H    -4.575000000    -0.916000000     0.954000000
H    -4.984000000    -0.539000000    -0.454000000
O     2.456000000    -3.162000000     2.784000000
H     2.310000000    -3.652000000     1.975000000
H     1.916000000    -3.608000000     3.435000000
O    -3.107000000     2.141000000    -6.948000000
H    -2.587000000     2.172000000    -6.145000000
H    -3.129000000     1.213000000    -7.183000000
O    -3.330000000     2.823000000    -1.534000000
H    -3.307000000     2.596000000    -2.464000000
H    -2.461000000     3.182000000    -1.353000000
O     0.274000000    -3.554000000    -1.420000000
H    -0.582000000    -3.377000000    -1.030000000
H     0.092000000    -3.669000000    -2.353000000
O     2.941000000     4.348000000    -1.613000000
H     2.171000000     4.076000000    -2.112000000
H     3.463000000     3.550000000    -1.525000000
O    -0.729000000    -3.673000000    -4.320000000
H    -1.657000000    -3.456000000    -4.225000000
H    -0.393000000    -3.023000000    -4.937000000
O    -5.453000000     1.246000000    -0.947000000
H    -4.721000000     1.843000000    -1.104000000
H    -6.045000000     1.737000000    -0.377000000
O     1.764000000     1.978000000    -5.822000000
H     1.345000000     1.615000000    -5.041000000
H     2.677000000     1.697000000    -5.755000000
O    -6.675000000     0.049000000    -3.611000000
H    -6.273000000     0.449000000    -2.840000000
H    -5.938000000    -0.160000000    -4.184000000
O    -2.252000000    -2.191000000    -1.042000000
H    -1.915000000    -1.306000000    -0.903000000
H    -3.162000000    -2.150000000    -0.750000000
O     2.245000000     2.090000000     2.870000000
H     1.428000000     1.950000000     2.390000000
H     2.111000000     1.645000000     3.706000000
O     0.713000000    -4.888000000     4.627000000
H     0.140000000    -5.331000000     5.253000000
H     1.333000000    -5.563000000     4.351000000
O    -3.473000000     4.205000000    -4.291000000
H    -2.986000000     5.006000000    -4.486000000
H    -2.885000000     3.498000000    -4.556000000
O    -3.659000000     3.363000000     2.447000000
H    -2.785000000     3.369000000     2.057000000
H    -4.239000000     3.649000000     1.742000000
O    -2.504000000     1.087000000     5.818000000
H    -1.861000000     1.671000000     6.220000000
H    -3.165000000     0.956000000     6.498000000
O     5.870000000     0.761000000    -0.207000000
H     6.193000000     0.074000000    -0.791000000
H     6.245000000     0.545000000     0.647000000
O     4.270000000     1.980000000    -1.953000000
H     3.638000000     1.389000000    -2.363000000
H     4.833000000     1.405000000    -1.434000000
O     1.021000000     0.642000000    -8.093000000
H     0.975000000     1.341000000    -7.440000000
H     0.806000000     1.072000000    -8.920000000
O     4.230000000    -0.166000000    -4.780000000
H     3.467000000    -0.057000000    -4.212000000
H     3.882000000    -0.573000000    -5.573000000
O     2.138000000    -4.647000000     0.598000000
H     1.474000000    -5.293000000     0.840000000
H     1.766000000    -4.191000000    -0.157000000
