161
-3062.24194
C     1.044000000    -0.401000000    -0.937000000
H     1.887000000    -0.662000000    -1.572000000
C     1.167000000     0.196000000     0.312000000
H     2.196000000     0.302000000     0.645000000
C     0.096000000     0.531000000     1.122000000
C     0.397000000     1.001000000     2.540000000
H    -0.483000000     1.322000000     3.102000000
H     1.023000000     0.369000000     3.174000000
H     0.917000000     1.961000000     2.516000000
C    -1.161000000     0.233000000     0.620000000
H    -2.012000000     0.283000000     1.295000000
C    -1.288000000    -0.285000000    -0.680000000
H    -2.268000000    -0.451000000    -1.120000000
C    -0.217000000    -0.570000000    -1.457000000
C    -0.371000000    -1.078000000    -2.837000000
O    -1.483000000    -1.138000000    -3.299000000
O     0.561000000    -1.617000000    -3.416000000
O     5.635000000    -3.076000000     0.218000000
H     4.842000000    -3.382000000    -0.222000000
H     6.109000000    -2.587000000    -0.455000000
O    -6.834000000    -2.238000000    -2.492000000
H    -5.941000000    -1.975000000    -2.271000000
H    -7.257000000    -1.430000000    -2.781000000
O    -5.114000000     1.000000000     1.870000000
H    -4.601000000     1.791000000     1.707000000
H    -5.253000000     0.621000000     1.002000000
O    -2.581000000    -4.931000000    -6.040000000
H    -2.868000000    -4.311000000    -5.369000000
H    -1.634000000    -4.996000000    -5.915000000
O    -3.561000000     3.414000000    -1.665000000
H    -2.994000000     2.876000000    -2.217000000
H    -2.995000000     3.704000000    -0.950000000
O     6.196000000    -1.190000000    -1.774000000
H     6.505000000    -0.501000000    -2.363000000
H     5.724000000    -1.798000000    -2.342000000
O     2.003000000    -0.185000000     5.425000000
H     1.854000000     0.189000000     6.293000000
H     2.501000000    -0.985000000     5.591000000
O    -2.102000000    -0.277000000     6.570000000
H    -1.679000000     0.079000000     7.352000000
H    -2.813000000    -0.821000000     6.909000000
O     3.320000000     3.696000000     0.329000000
H     3.525000000     2.792000000     0.566000000
H     2.643000000     3.620000000    -0.343000000
O    -1.643000000     0.078000000    -5.519000000
H    -1.365000000    -0.322000000    -4.695000000
H    -2.080000000    -0.630000000    -5.994000000
O     0.790000000    -3.018000000     1.768000000
H     0.543000000    -2.236000000     1.275000000
H     1.708000000    -2.876000000     1.998000000
O     0.352000000    -4.609000000    -0.373000000
H     0.301000000    -4.211000000     0.496000000
H    -0.560000000    -4.695000000    -0.651000000
O    -1.654000000     2.444000000    -3.572000000
H    -0.742000000     2.368000000    -3.853000000
H    -2.149000000     2.532000000    -4.387000000
O     4.686000000     1.974000000     2.329000000
H     4.894000000     1.253000000     2.923000000
H     4.977000000     1.669000000     1.470000000
O    -4.522000000     3.831000000     1.568000000
H    -4.810000000     4.239000000     2.384000000
H    -3.702000000     4.275000000     1.354000000
O    -1.498000000    -4.570000000     3.740000000
H    -2.296000000    -4.114000000     4.008000000
H    -0.858000000    -3.871000000     3.602000000
O     1.178000000     2.915000000    -1.677000000
H     1.053000000     2.920000000    -2.626000000
H     0.629000000     2.196000000    -1.367000000
O    -0.430000000    -1.654000000     4.693000000
H    -0.880000000    -1.082000000     5.314000000
H     0.392000000    -1.201000000     4.503000000
O     5.161000000    -0.187000000     4.002000000
H     4.882000000    -0.670000000     4.780000000
H     6.113000000    -0.289000000     3.986000000
O    -1.962000000    -4.659000000    -1.527000000
H    -1.776000000    -5.567000000    -1.765000000
H    -2.282000000    -4.260000000    -2.336000000
O    -1.553000000     4.661000000    -0.137000000
H    -0.665000000     4.717000000     0.217000000
H    -2.085000000     5.176000000     0.470000000
O    -2.883000000     2.775000000     5.320000000
H    -3.712000000     2.532000000     5.731000000
H    -2.213000000     2.371000000     5.873000000
O    -5.245000000     0.812000000     4.580000000
H    -5.083000000     1.211000000     3.725000000
H    -6.177000000     0.591000000     4.568000000
O     2.161000000    -3.380000000    -2.213000000
H     1.655000000    -3.754000000    -1.491000000
H     1.514000000    -2.911000000    -2.740000000
O     4.932000000     1.051000000    -0.356000000
H     5.267000000     0.212000000    -0.674000000
H     5.626000000     1.678000000    -0.561000000
O     2.576000000    -3.331000000     4.907000000
H     2.641000000    -4.283000000     4.833000000
H     2.352000000    -3.036000000     4.025000000
O    -3.946000000    -1.553000000     3.697000000
H    -3.081000000    -1.365000000     4.062000000
H    -4.418000000    -0.723000000     3.758000000
O     0.815000000     5.022000000     1.415000000
H     1.413000000     5.711000000     1.125000000
H     1.367000000     4.245000000     1.499000000
O    -3.673000000     0.554000000    -3.154000000
H    -3.174000000     1.314000000    -3.455000000
H    -3.083000000    -0.188000000    -3.287000000
O     1.839000000     4.361000000     5.708000000
H     1.969000000     3.641000000     5.090000000
H     2.598000000     4.317000000     6.289000000
O     2.723000000     2.152000000     4.497000000
H     2.441000000     1.306000000     4.845000000
H     3.411000000     1.934000000     3.867000000
O     0.126000000    -4.761000000    -5.227000000
H     0.181000000    -3.929000000    -4.756000000
H     0.990000000    -5.157000000    -5.116000000
O     0.744000000     0.952000000    -6.595000000
H     1.243000000     0.153000000    -6.424000000
H    -0.168000000     0.698000000    -6.457000000
O    -6.191000000     0.669000000    -4.597000000
H    -5.506000000     0.721000000    -3.931000000
H    -5.930000000    -0.064000000    -5.153000000
O    -2.906000000     4.933000000     3.879000000
H    -1.957000000     5.006000000     3.982000000
H    -3.150000000     4.184000000     4.424000000
O     1.544000000    -3.627000000    -7.803000000
H     1.322000000    -4.285000000    -7.145000000
H     1.792000000    -4.134000000    -8.576000000
O    -3.996000000    -2.719000000    -0.959000000
H    -3.401000000    -3.402000000    -0.651000000
H    -4.665000000    -2.659000000    -0.278000000
O    -2.775000000    -3.363000000    -3.713000000
H    -2.235000000    -2.580000000    -3.610000000
H    -3.539000000    -3.202000000    -3.160000000
O     3.587000000    -2.095000000     1.979000000
H     4.103000000    -1.500000000     2.523000000
H     4.234000000    -2.679000000     1.583000000
O    -4.725000000    -0.035000000    -0.735000000
H    -4.316000000     0.128000000    -1.585000000
H    -4.224000000    -0.761000000    -0.363000000
O     2.702000000    -5.495000000    -4.611000000
H     3.560000000    -5.608000000    -5.020000000
H     2.604000000    -6.260000000    -4.044000000
O    -5.427000000    -2.069000000     1.325000000
H    -5.094000000    -1.972000000     2.217000000
H    -6.366000000    -2.220000000     1.435000000
O     4.817000000    -3.223000000    -3.378000000
H     4.791000000    -3.114000000    -4.329000000
H     3.902000000    -3.346000000    -3.126000000
O     1.132000000     2.968000000    -4.542000000
H     1.761000000     3.684000000    -4.448000000
H     1.339000000     2.578000000    -5.391000000
O     4.944000000     4.393000000     3.638000000
H     4.267000000     4.176000000     4.279000000
H     4.806000000     3.769000000     2.925000000
O     1.964000000    -1.461000000    -5.686000000
H     2.201000000    -2.376000000    -5.836000000
H     1.505000000    -1.468000000    -4.846000000
O    -0.855000000     6.752000000     3.631000000
H    -0.483000000     6.244000000     2.910000000
H    -0.838000000     7.657000000     3.319000000
O     4.109000000    -0.059000000    -4.622000000
H     3.443000000    -0.491000000    -5.156000000
H     3.678000000     0.099000000    -3.782000000
