161
-3028.16148
C     1.179000000     0.769000000     0.514000000
H     1.982000000     1.371000000     0.931000000
C    -0.059000000     0.653000000     1.170000000
H    -0.160000000     1.146000000     2.133000000
C    -1.126000000    -0.024000000     0.567000000
C    -2.401000000    -0.300000000     1.262000000
H    -3.122000000    -0.786000000     0.601000000
H    -2.285000000    -0.901000000     2.166000000
H    -2.926000000     0.647000000     1.407000000
C    -0.929000000    -0.594000000    -0.720000000
H    -1.793000000    -1.140000000    -1.089000000
C     0.366000000    -0.616000000    -1.309000000
H     0.585000000    -1.131000000    -2.241000000
C     1.395000000     0.087000000    -0.714000000
C     2.705000000     0.217000000    -1.366000000
O     3.041000000    -0.339000000    -2.399000000
O     3.556000000     0.947000000    -0.908000000
O     0.801000000     4.118000000     2.956000000
H     1.437000000     3.877000000     2.282000000
H     1.309000000     4.141000000     3.767000000
O     2.143000000     4.981000000    -2.406000000
H     2.861000000     4.450000000    -2.062000000
H     1.620000000     5.204000000    -1.636000000
O     8.022000000    -0.882000000    -0.123000000
H     8.245000000    -0.633000000     0.774000000
H     7.420000000    -0.199000000    -0.419000000
O     1.758000000    -1.654000000     4.770000000
H     1.123000000    -2.195000000     5.240000000
H     1.307000000    -0.822000000     4.628000000
O    -3.604000000     2.377000000    -4.681000000
H    -3.383000000     1.965000000    -5.517000000
H    -3.149000000     1.849000000    -4.026000000
O    -1.648000000     3.688000000     1.852000000
H    -2.015000000     4.547000000     2.064000000
H    -0.745000000     3.730000000     2.166000000
O     0.408000000    -4.381000000     2.640000000
H    -0.201000000    -4.127000000     1.947000000
H     0.097000000    -3.915000000     3.416000000
O    -6.023000000     0.937000000     3.151000000
H    -6.875000000     1.358000000     3.044000000
H    -5.462000000     1.362000000     2.502000000
O     6.454000000     1.255000000    -0.973000000
H     6.405000000     1.875000000    -0.245000000
H     5.540000000     1.050000000    -1.173000000
O     3.796000000    -0.633000000    -6.850000000
H     3.172000000    -1.231000000    -6.439000000
H     4.296000000    -0.270000000    -6.119000000
O     2.412000000    -2.253000000    -5.185000000
H     1.598000000    -2.215000000    -4.684000000
H     3.083000000    -2.465000000    -4.536000000
O     4.281000000    -1.306000000     4.265000000
H     3.355000000    -1.433000000     4.470000000
H     4.307000000    -1.227000000     3.311000000
O     5.398000000     2.073000000     3.102000000
H     5.330000000     1.187000000     2.747000000
H     6.106000000     2.020000000     3.744000000
O    -3.015000000     1.502000000     6.302000000
H    -2.465000000     1.998000000     5.695000000
H    -3.115000000     2.078000000     7.060000000
O     6.976000000     2.976000000     1.150000000
H     6.314000000     2.832000000     1.826000000
H     7.593000000     3.592000000     1.546000000
O    -1.896000000     0.745000000    -3.353000000
H    -1.770000000     0.020000000    -2.740000000
H    -1.872000000     0.335000000    -4.217000000
O     0.817000000     1.378000000     6.205000000
H     1.666000000     0.938000000     6.166000000
H     1.012000000     2.295000000     6.014000000
O    -6.416000000     4.068000000     2.523000000
H    -5.800000000     4.086000000     3.255000000
H    -5.907000000     3.717000000     1.791000000
O     5.844000000     5.299000000    -2.041000000
H     5.244000000     5.970000000    -2.366000000
H     5.278000000     4.657000000    -1.614000000
O     5.557000000     2.398000000    -5.556000000
H     5.335000000     1.722000000    -4.916000000
H     5.107000000     2.128000000    -6.356000000
O    -4.478000000    -1.637000000     3.764000000
H    -4.230000000    -0.954000000     3.141000000
H    -4.942000000    -1.170000000     4.459000000
O    -3.202000000    -4.793000000    -0.849000000
H    -3.359000000    -4.145000000    -1.535000000
H    -3.898000000    -4.640000000    -0.210000000
O    -0.931000000    -2.927000000    -3.129000000
H    -1.649000000    -3.552000000    -3.223000000
H    -1.122000000    -2.243000000    -3.771000000
O     6.747000000    -3.529000000    -1.957000000
H     6.352000000    -3.013000000    -1.255000000
H     6.192000000    -4.306000000    -2.025000000
O     0.699000000     3.752000000    -0.016000000
H     0.244000000     3.665000000    -0.854000000
H     0.816000000     2.852000000     0.288000000
O    -0.587000000     3.008000000    -2.297000000
H    -1.172000000     2.261000000    -2.421000000
H    -0.300000000     3.237000000    -3.181000000
O    -0.539000000    -3.093000000     5.849000000
H    -0.949000000    -2.229000000     5.903000000
H    -1.265000000    -3.709000000     5.947000000
O    -4.359000000     4.290000000     4.675000000
H    -4.130000000     5.192000000     4.897000000
H    -3.545000000     3.908000000     4.348000000
O    -0.103000000    -0.182000000    -7.294000000
H    -0.855000000     0.398000000    -7.170000000
H     0.369000000    -0.142000000    -6.462000000
O    -1.628000000    -3.407000000     0.798000000
H    -2.198000000    -4.047000000     0.373000000
H    -1.606000000    -2.666000000     0.192000000
O    -4.425000000    -2.803000000    -3.807000000
H    -4.586000000    -2.520000000    -2.907000000
H    -5.170000000    -2.463000000    -4.302000000
O     4.754000000    -2.730000000     1.362000000
H     5.667000000    -3.014000000     1.349000000
H     4.249000000    -3.543000000     1.342000000
O    -2.786000000     3.453000000    -0.837000000
H    -2.026000000     3.403000000    -1.417000000
H    -2.421000000     3.362000000     0.044000000
O    -3.395000000    -4.125000000     3.197000000
H    -2.701000000    -3.940000000     2.564000000
H    -3.731000000    -3.263000000     3.443000000
O     3.826000000    -2.839000000    -2.871000000
H     3.474000000    -1.990000000    -2.602000000
H     3.803000000    -3.371000000    -2.075000000
O     4.070000000     3.586000000    -0.866000000
H     3.795000000     2.696000000    -1.087000000
H     3.983000000     3.634000000     0.086000000
O    -5.032000000     2.895000000     0.544000000
H    -4.183000000     3.106000000     0.155000000
H    -5.583000000     2.653000000    -0.200000000
O     1.337000000     3.240000000    -4.359000000
H     1.782000000     3.792000000    -3.715000000
H     1.542000000     3.644000000    -5.202000000
O    -5.791000000    -2.891000000    -1.094000000
H    -6.640000000    -2.581000000    -0.778000000
H    -6.004000000    -3.623000000    -1.674000000
O    -1.661000000     3.523000000     4.761000000
H    -1.307000000     3.235000000     3.920000000
H    -1.024000000     4.160000000     5.084000000
O     6.941000000    -2.154000000    -4.544000000
H     6.512000000    -2.829000000    -5.070000000
H     6.833000000    -2.450000000    -3.641000000
O    -2.213000000    -1.263000000    -4.972000000
H    -1.952000000    -2.137000000    -5.261000000
H    -3.169000000    -1.300000000    -4.932000000
O     1.143000000     0.342000000    -4.117000000
H     1.826000000     0.053000000    -3.512000000
H     1.224000000     1.295000000    -4.132000000
O     0.752000000     6.361000000     0.685000000
H     0.585000000     5.435000000     0.862000000
H     1.639000000     6.380000000     0.326000000
O     3.321000000     3.753000000     2.025000000
H     3.664000000     4.638000000     1.895000000
H     3.966000000     3.327000000     2.589000000
O     4.434000000    -0.164000000     1.325000000
H     4.232000000     0.181000000     0.456000000
H     4.606000000    -1.094000000     1.181000000
O    -1.151000000    -0.219000000     5.587000000
H    -0.371000000     0.264000000     5.863000000
H    -1.808000000    -0.013000000     6.252000000
O     4.974000000     0.103000000    -4.360000000
H     5.572000000    -0.613000000    -4.145000000
H     4.323000000     0.090000000    -3.659000000
