161
-3015.89115
C     0.744000000     1.052000000    -0.684000000
H     1.311000000     1.923000000    -1.003000000
C    -0.050000000     1.167000000     0.444000000
H    -0.128000000     2.121000000     0.958000000
C    -0.724000000     0.118000000     0.993000000
C    -1.362000000     0.279000000     2.395000000
H    -2.326000000     0.682000000     2.078000000
H    -1.459000000    -0.686000000     2.896000000
H    -0.799000000     0.971000000     3.026000000
C    -0.702000000    -1.098000000     0.305000000
H    -1.299000000    -1.912000000     0.708000000
C     0.031000000    -1.240000000    -0.864000000
H    -0.091000000    -2.116000000    -1.496000000
C     0.904000000    -0.207000000    -1.302000000
C     1.744000000    -0.338000000    -2.509000000
O     2.053000000    -1.407000000    -2.888000000
O     2.154000000     0.689000000    -3.053000000
O    -3.229000000    -4.969000000     0.250000000
H    -2.392000000    -5.430000000     0.301000000
H    -3.816000000    -5.477000000     0.811000000
O     6.245000000     0.571000000    -2.214000000
H     6.695000000     0.000000000    -1.592000000
H     6.933000000     1.139000000    -2.560000000
O    -4.299000000     1.082000000     6.872000000
H    -3.385000000     1.160000000     7.148000000
H    -4.322000000     1.486000000     6.004000000
O    -3.472000000    -2.435000000     3.927000000
H    -2.553000000    -2.697000000     3.876000000
H    -3.864000000    -3.054000000     4.543000000
O    -1.760000000     2.257000000     7.985000000
H    -0.896000000     2.101000000     7.601000000
H    -1.611000000     2.225000000     8.930000000
O     1.211000000    -5.437000000    -0.753000000
H     1.633000000    -4.794000000    -0.183000000
H     1.692000000    -5.377000000    -1.579000000
O     4.027000000     2.087000000    -2.209000000
H     4.725000000     1.517000000    -2.530000000
H     3.221000000     1.601000000    -2.385000000
O     3.139000000    -5.988000000    -2.800000000
H     3.415000000    -6.535000000    -3.535000000
H     3.729000000    -5.235000000    -2.826000000
O    -6.438000000    -0.748000000    -1.196000000
H    -6.281000000     0.187000000    -1.327000000
H    -6.015000000    -0.947000000    -0.360000000
O    -4.735000000    -0.245000000     3.133000000
H    -4.891000000    -0.368000000     2.197000000
H    -4.248000000    -1.025000000     3.399000000
O    -1.152000000     2.964000000    -4.160000000
H    -1.131000000     3.730000000    -3.586000000
H    -0.438000000     2.409000000    -3.845000000
O     4.213000000     1.374000000     0.777000000
H     3.916000000     1.659000000    -0.087000000
H     5.126000000     1.118000000     0.644000000
O    -2.849000000    -1.147000000    -4.612000000
H    -3.542000000    -1.705000000    -4.259000000
H    -2.555000000    -0.629000000    -3.862000000
O     4.276000000    -2.569000000    -2.443000000
H     3.379000000    -2.253000000    -2.556000000
H     4.480000000    -2.383000000    -1.526000000
O    -0.957000000    -6.526000000     0.114000000
H    -0.612000000    -6.683000000     0.994000000
H    -0.345000000    -5.902000000    -0.275000000
O     4.298000000    -1.708000000     0.503000000
H     5.017000000    -1.775000000     1.131000000
H     3.915000000    -0.846000000     0.668000000
O     1.852000000    -5.423000000    -6.088000000
H     1.362000000    -5.903000000    -5.421000000
H     1.989000000    -4.556000000    -5.707000000
O     1.316000000    -2.090000000    -7.661000000
H     1.908000000    -1.509000000    -8.139000000
H     1.619000000    -2.048000000    -6.754000000
O     3.088000000    -4.088000000     1.314000000
H     4.021000000    -4.298000000     1.340000000
H     3.053000000    -3.191000000     0.982000000
O     2.246000000    -2.846000000     4.846000000
H     2.797000000    -3.521000000     4.450000000
H     2.544000000    -2.795000000     5.754000000
O    -5.419000000     3.651000000     1.334000000
H    -5.248000000     3.305000000     0.458000000
H    -4.553000000     3.725000000     1.735000000
O     4.350000000    -2.478000000    -6.062000000
H     4.515000000    -1.778000000    -5.431000000
H     4.316000000    -2.034000000    -6.910000000
O     3.595000000     3.147000000    -4.770000000
H     3.172000000     2.357000000    -5.108000000
H     3.768000000     2.951000000    -3.849000000
O    -0.402000000    -2.824000000     4.412000000
H     0.535000000    -2.987000000     4.522000000
H    -0.612000000    -2.177000000     5.086000000
O     2.215000000     0.846000000    -5.681000000
H     2.188000000     0.563000000    -4.767000000
H     1.337000000     0.659000000    -6.015000000
O     0.493000000     4.593000000    -2.303000000
H     1.291000000     4.493000000    -1.784000000
H    -0.109000000     5.064000000    -1.727000000
O     2.660000000     2.254000000     3.182000000
H     3.053000000     1.525000000     3.662000000
H     2.987000000     2.156000000     2.288000000
O     0.347000000     6.631000000     1.655000000
H     1.296000000     6.668000000     1.773000000
H     0.007000000     7.314000000     2.234000000
O     0.830000000     4.004000000     6.808000000
H     0.833000000     3.048000000     6.851000000
H     1.653000000     4.265000000     7.220000000
O    -5.547000000    -2.207000000     1.054000000
H    -6.112000000    -2.614000000     1.711000000
H    -4.987000000    -2.919000000     0.745000000
O     0.962000000     1.383000000     7.391000000
H     1.593000000     1.141000000     8.070000000
H     0.925000000     0.619000000     6.815000000
O    -3.885000000     1.978000000     4.305000000
H    -4.304000000     1.458000000     3.619000000
H    -2.998000000     2.133000000     3.981000000
O     1.823000000    -2.592000000    -5.061000000
H     1.738000000    -2.279000000    -4.160000000
H     2.766000000    -2.705000000    -5.187000000
O    -1.448000000    -3.918000000    -5.075000000
H    -1.874000000    -3.217000000    -4.580000000
H    -0.562000000    -3.961000000    -4.714000000
O     4.303000000     1.635000000    -7.466000000
H     3.760000000     1.213000000    -6.800000000
H     4.301000000     2.561000000    -7.226000000
O     2.942000000     5.956000000     2.769000000
H     2.830000000     5.007000000     2.821000000
H     3.219000000     6.213000000     3.649000000
O     2.045000000    -1.181000000     2.614000000
H     1.482000000    -1.227000000     1.841000000
H     1.469000000    -1.409000000     3.343000000
O    -0.042000000     3.423000000     3.491000000
H     0.883000000     3.177000000     3.453000000
H    -0.056000000     4.221000000     4.020000000
O     4.891000000    -0.313000000    -4.593000000
H     4.159000000    -0.575000000    -4.035000000
H     5.631000000    -0.226000000    -3.992000000
O    -2.285000000     0.701000000    -2.371000000
H    -2.532000000     1.612000000    -2.208000000
H    -1.835000000     0.429000000    -1.571000000
O    -0.588000000    -0.008000000    -6.332000000
H    -1.205000000    -0.216000000    -5.630000000
H    -0.721000000    -0.697000000    -6.982000000
O    -1.381000000     5.356000000    -0.205000000
H    -1.551000000     5.010000000     0.671000000
H    -0.915000000     6.178000000    -0.052000000
O    -2.379000000     3.561000000     2.318000000
H    -2.868000000     4.222000000     2.808000000
H    -1.506000000     3.569000000     2.710000000
O     6.721000000    -3.417000000    -3.864000000
H     6.782000000    -3.099000000    -4.765000000
H     5.986000000    -2.932000000    -3.489000000
O    -5.498000000     1.612000000    -1.804000000
H    -4.829000000     2.254000000    -1.567000000
H    -5.430000000     1.535000000    -2.756000000
O    -0.303000000    -1.180000000     6.439000000
H     0.378000000    -1.851000000     6.491000000
H    -0.669000000    -1.141000000     7.322000000
O     3.675000000     4.429000000    -0.954000000
H     3.895000000     3.696000000    -1.529000000
H     4.505000000     4.665000000    -0.539000000
O    -3.442000000     2.807000000    -0.582000000
H    -3.352000000     3.752000000    -0.700000000
H    -2.846000000     2.598000000     0.138000000
