161
-3022.66941
C     1.018000000     0.553000000     0.933000000
H     1.749000000     0.867000000     1.674000000
C    -0.358000000     0.616000000     1.163000000
H    -0.710000000     0.860000000     2.162000000
C    -1.193000000     0.140000000     0.140000000
C    -2.695000000    -0.164000000     0.432000000
H    -3.263000000    -0.569000000    -0.409000000
H    -2.798000000    -0.903000000     1.229000000
H    -3.217000000     0.756000000     0.706000000
C    -0.638000000    -0.343000000    -1.043000000
H    -1.288000000    -0.685000000    -1.845000000
C     0.651000000    -0.414000000    -1.204000000
H     0.938000000    -0.855000000    -2.155000000
C     1.542000000     0.068000000    -0.292000000
C     3.001000000     0.069000000    -0.493000000
O     3.577000000    -0.191000000    -1.541000000
O     3.681000000     0.195000000     0.548000000
O    -5.526000000    -2.936000000     0.790000000
H    -5.093000000    -3.293000000     1.565000000
H    -6.388000000    -3.353000000     0.784000000
O     6.301000000     4.230000000     1.673000000
H     6.147000000     3.285000000     1.697000000
H     5.429000000     4.617000000     1.750000000
O     4.562000000    -3.961000000    -2.919000000
H     5.185000000    -4.635000000    -3.191000000
H     3.798000000    -4.451000000    -2.615000000
O     1.057000000    -3.371000000     1.305000000
H     1.745000000    -2.726000000     1.473000000
H     0.291000000    -3.029000000     1.766000000
O     5.359000000     3.183000000    -1.445000000
H     5.512000000     3.620000000    -2.283000000
H     6.182000000     2.731000000    -1.257000000
O     5.574000000    -2.055000000    -0.956000000
H     5.326000000    -2.688000000    -1.629000000
H     4.889000000    -1.387000000    -0.991000000
O     6.335000000     1.475000000     3.985000000
H     6.302000000     1.448000000     3.029000000
H     5.666000000     0.851000000     4.266000000
O     5.197000000    -2.811000000    -6.011000000
H     4.680000000    -3.594000000    -5.821000000
H     5.189000000    -2.315000000    -5.192000000
O    -5.680000000    -2.116000000    -1.926000000
H    -5.856000000    -2.392000000    -1.026000000
H    -6.172000000    -1.302000000    -2.027000000
O    -4.342000000    -3.821000000     3.446000000
H    -4.117000000    -4.566000000     2.889000000
H    -3.503000000    -3.521000000     3.795000000
O    -5.463000000    -0.692000000     2.697000000
H    -5.172000000    -1.335000000     2.050000000
H    -6.062000000    -1.178000000     3.264000000
O    -0.202000000     2.713000000    -3.092000000
H    -0.466000000     2.230000000    -3.875000000
H    -0.642000000     2.260000000    -2.372000000
O     5.914000000     1.269000000     1.466000000
H     6.362000000     1.239000000     0.620000000
H     5.158000000     0.692000000     1.356000000
O     5.541000000     0.344000000    -3.559000000
H     5.300000000     0.070000000    -2.674000000
H     4.964000000     1.084000000    -3.746000000
O     3.163000000    -1.898000000     2.178000000
H     3.180000000    -1.423000000     3.009000000
H     3.738000000    -1.393000000     1.602000000
O    -0.997000000     5.140000000     3.643000000
H    -1.156000000     6.008000000     3.271000000
H    -0.178000000     5.235000000     4.130000000
O    -6.345000000     3.206000000     3.996000000
H    -6.800000000     2.532000000     3.492000000
H    -5.425000000     2.941000000     3.975000000
O     1.814000000    -2.322000000    -6.797000000
H     0.943000000    -1.937000000    -6.894000000
H     1.985000000    -2.294000000    -5.855000000
O     5.013000000    -4.086000000     1.006000000
H     4.500000000    -3.656000000     1.689000000
H     5.244000000    -3.382000000     0.400000000
O    -1.388000000    -5.106000000     2.944000000
H    -1.214000000    -4.166000000     2.989000000
H    -1.509000000    -5.282000000     2.011000000
O     3.994000000    -0.161000000     4.254000000
H     4.275000000    -1.031000000     4.538000000
H     3.253000000     0.049000000     4.822000000
O     3.670000000     3.138000000     0.553000000
H     3.664000000     2.200000000     0.747000000
H     3.973000000     3.192000000    -0.353000000
O     1.811000000     0.284000000    -5.082000000
H     2.078000000    -0.374000000    -4.441000000
H     0.917000000     0.039000000    -5.319000000
O    -2.742000000     4.289000000    -0.028000000
H    -2.236000000     5.074000000     0.177000000
H    -2.795000000     4.281000000    -0.984000000
O    -4.295000000    -5.117000000    -1.007000000
H    -4.114000000    -5.307000000    -1.928000000
H    -4.853000000    -4.340000000    -1.029000000
O    -6.115000000     1.851000000     0.451000000
H    -5.480000000     1.165000000     0.658000000
H    -6.870000000     1.653000000     1.006000000
O     2.053000000     3.936000000    -2.431000000
H     1.177000000     3.683000000    -2.723000000
H     2.487000000     3.107000000    -2.231000000
O    -2.926000000     1.255000000     6.413000000
H    -2.877000000     1.050000000     5.480000000
H    -3.493000000     0.576000000     6.779000000
O     2.971000000    -1.617000000    -3.598000000
H     3.125000000    -1.092000000    -2.813000000
H     3.455000000    -2.428000000    -3.442000000
O    -0.968000000    -2.977000000    -3.577000000
H    -1.875000000    -2.739000000    -3.382000000
H    -0.569000000    -3.121000000    -2.719000000
O     4.591000000     0.372000000    -6.691000000
H     3.830000000    -0.147000000    -6.429000000
H     5.019000000     0.601000000    -5.866000000
O     7.469000000    -1.640000000    -3.331000000
H     7.573000000    -1.776000000    -2.389000000
H     6.627000000    -1.193000000    -3.417000000
O     3.640000000     2.468000000    -4.308000000
H     3.027000000     1.865000000    -4.727000000
H     3.083000000     3.124000000    -3.889000000
O     1.629000000     5.448000000     1.300000000
H     2.185000000     4.691000000     1.118000000
H     2.158000000     6.202000000     1.038000000
O    -1.889000000    -5.297000000     0.238000000
H    -2.747000000    -5.254000000    -0.184000000
H    -1.276000000    -5.000000000    -0.435000000
O    -1.005000000    -2.338000000     2.994000000
H    -1.061000000    -2.478000000     3.939000000
H    -1.516000000    -1.543000000     2.839000000
O    -2.278000000     3.098000000     2.327000000
H    -2.329000000     3.383000000     1.415000000
H    -1.719000000     3.748000000     2.751000000
O    -1.933000000    -4.297000000    -5.650000000
H    -1.342000000    -3.772000000    -5.111000000
H    -2.806000000    -3.967000000    -5.439000000
O     0.257000000    -4.101000000    -1.192000000
H     0.835000000    -4.842000000    -1.373000000
H     0.574000000    -3.748000000    -0.360000000
O    -3.374000000    -1.296000000    -3.064000000
H    -4.243000000    -1.610000000    -2.814000000
H    -3.442000000    -0.342000000    -3.021000000
O    -4.160000000     1.485000000    -3.356000000
H    -5.034000000     1.678000000    -3.018000000
H    -3.739000000     2.341000000    -3.434000000
O     7.566000000     1.572000000    -0.567000000
H     8.079000000     0.786000000    -0.381000000
H     8.216000000     2.228000000    -0.819000000
O    -0.967000000     1.635000000    -5.556000000
H    -0.906000000     0.693000000    -5.713000000
H    -1.793000000     1.893000000    -5.964000000
O    -5.776000000     4.691000000     0.576000000
H    -5.584000000     3.753000000     0.570000000
H    -5.096000000     5.071000000     1.132000000
O    -3.134000000     0.655000000     3.830000000
H    -2.875000000     1.223000000     3.104000000
H    -3.976000000     0.289000000     3.558000000
O    -7.397000000    -0.219000000    -2.100000000
H    -8.163000000    -0.232000000    -1.527000000
H    -7.639000000     0.375000000    -2.810000000
O     3.167000000     4.169000000     3.395000000
H     3.875000000     3.851000000     3.956000000
H     2.924000000     3.412000000     2.863000000
O    -6.353000000     2.696000000    -2.075000000
H    -6.384000000     2.426000000    -1.157000000
H    -7.245000000     2.560000000    -2.395000000
