161
-3042.00373
C     0.430000000     1.238000000    -0.692000000
H     0.732000000     2.180000000    -1.144000000
C    -0.034000000     1.225000000     0.654000000
H     0.021000000     2.079000000     1.323000000
C    -0.519000000    -0.050000000     1.077000000
C    -1.051000000    -0.194000000     2.475000000
H    -0.483000000    -0.934000000     3.044000000
H    -1.028000000     0.752000000     3.019000000
H    -2.078000000    -0.555000000     2.396000000
C    -0.452000000    -1.193000000     0.306000000
H    -0.838000000    -2.139000000     0.677000000
C     0.108000000    -1.104000000    -0.938000000
H     0.233000000    -1.963000000    -1.592000000
C     0.517000000     0.052000000    -1.442000000
C     1.252000000     0.155000000    -2.743000000
O     1.635000000    -0.833000000    -3.300000000
O     1.552000000     1.282000000    -3.115000000
O    -4.010000000    -4.295000000     0.687000000
H    -4.768000000    -4.279000000     1.271000000
H    -3.265000000    -4.105000000     1.257000000
O     4.304000000     5.647000000    -3.377000000
H     3.519000000     5.101000000    -3.328000000
H     4.048000000     6.471000000    -2.964000000
O    -1.796000000    -0.168000000     6.141000000
H    -2.529000000     0.126000000     5.599000000
H    -1.637000000    -1.069000000     5.861000000
O     3.800000000    -3.413000000     2.378000000
H     3.072000000    -3.619000000     1.792000000
H     3.486000000    -3.661000000     3.247000000
O    -1.250000000    -2.183000000    -6.977000000
H    -0.372000000    -2.216000000    -7.359000000
H    -1.098000000    -2.116000000    -6.035000000
O     1.732000000     6.541000000     1.457000000
H     1.913000000     6.160000000     2.316000000
H     0.947000000     7.072000000     1.591000000
O     1.946000000    -3.904000000     0.280000000
H     1.083000000    -3.925000000    -0.134000000
H     2.179000000    -4.825000000     0.397000000
O     3.295000000     2.863000000    -1.059000000
H     2.693000000     3.605000000    -1.111000000
H     3.060000000     2.310000000    -1.804000000
O     5.493000000     2.615000000    -5.579000000
H     4.920000000     3.328000000    -5.861000000
H     5.452000000     2.639000000    -4.623000000
O     3.097000000     1.700000000     1.411000000
H     2.692000000     2.060000000     0.622000000
H     2.585000000     2.069000000     2.132000000
O     2.129000000    -6.543000000    -3.179000000
H     2.850000000    -6.012000000    -2.841000000
H     1.498000000    -5.904000000    -3.511000000
O    -1.639000000     2.008000000    -3.664000000
H    -2.133000000     1.917000000    -2.849000000
H    -1.309000000     1.128000000    -3.844000000
O    -4.586000000    -2.859000000     5.106000000
H    -4.035000000    -2.865000000     5.889000000
H    -4.796000000    -3.780000000     4.954000000
O    -2.459000000     4.486000000    -1.835000000
H    -2.391000000     3.659000000    -1.356000000
H    -1.627000000     4.560000000    -2.302000000
O    -3.328000000     1.260000000    -0.958000000
H    -3.811000000     0.515000000    -1.317000000
H    -3.666000000     1.357000000    -0.068000000
O    -1.029000000    -4.621000000    -0.722000000
H    -1.917000000    -4.560000000    -1.076000000
H    -0.997000000    -5.481000000    -0.303000000
O    -0.807000000    -5.244000000    -4.667000000
H    -1.410000000    -5.972000000    -4.815000000
H    -1.293000000    -4.640000000    -4.106000000
O    -2.591000000     4.960000000     3.737000000
H    -2.105000000     4.803000000     2.927000000
H    -2.168000000     4.394000000     4.383000000
O     1.842000000     0.139000000    -7.703000000
H     2.033000000    -0.560000000    -8.328000000
H     2.668000000     0.616000000    -7.617000000
O    -1.421000000    -5.879000000     3.499000000
H    -1.822000000    -5.289000000     2.861000000
H    -0.572000000    -6.102000000     3.118000000
O     2.891000000    -2.106000000    -5.215000000
H     2.365000000    -2.886000000    -5.393000000
H     2.282000000    -1.496000000    -4.798000000
O     0.886000000     4.739000000    -0.416000000
H     1.300000000     5.307000000     0.235000000
H     0.843000000     5.275000000    -1.208000000
O     2.474000000    -0.477000000     2.396000000
H     2.826000000     0.361000000     2.097000000
H     1.815000000    -0.708000000     1.741000000
O     5.823000000    -1.302000000    -5.853000000
H     4.976000000    -1.673000000    -5.606000000
H     6.022000000    -1.703000000    -6.699000000
O     0.099000000     1.225000000    -5.782000000
H     0.534000000     1.152000000    -4.932000000
H     0.747000000     0.906000000    -6.410000000
O    -2.503000000    -3.196000000     2.814000000
H    -1.919000000    -2.460000000     2.997000000
H    -2.737000000    -3.536000000     3.677000000
O     3.040000000     4.267000000    -6.295000000
H     3.399000000     5.154000000    -6.310000000
H     2.826000000     4.110000000    -5.376000000
O     2.363000000     3.623000000    -3.805000000
H     1.545000000     4.120000000    -3.779000000
H     2.091000000     2.709000000    -3.727000000
O    -0.985000000     4.275000000     5.956000000
H    -1.017000000     3.704000000     6.724000000
H    -0.590000000     5.085000000     6.277000000
O    -4.015000000     1.359000000     3.747000000
H    -3.951000000     1.797000000     2.898000000
H    -4.720000000     1.820000000     4.201000000
O    -0.779000000     4.538000000    -3.901000000
H    -1.413000000     5.029000000    -4.423000000
H    -1.065000000     3.627000000    -3.972000000
O     0.724000000     1.762000000     5.861000000
H     0.361000000     1.203000000     6.548000000
H    -0.019000000     1.953000000     5.290000000
O    -3.715000000     2.764000000     1.333000000
H    -2.907000000     3.273000000     1.262000000
H    -4.414000000     3.410000000     1.236000000
O    -0.656000000    -2.053000000    -4.296000000
H     0.149000000    -1.654000000    -3.967000000
H    -1.345000000    -1.704000000    -3.731000000
O    -2.262000000    -0.873000000    -2.511000000
H    -1.977000000    -0.406000000    -1.726000000
H    -2.971000000    -1.440000000    -2.209000000
O     5.759000000     3.480000000    -2.935000000
H     4.986000000     3.259000000    -2.417000000
H     5.686000000     4.423000000    -3.086000000
O     0.387000000     6.752000000    -2.309000000
H     0.669000000     7.550000000    -2.755000000
H     0.033000000     6.200000000    -3.006000000
O    -5.945000000    -0.677000000     3.727000000
H    -5.453000000    -1.432000000     4.048000000
H    -5.274000000    -0.036000000     3.492000000
O     6.023000000     3.057000000     0.304000000
H     6.747000000     2.500000000     0.018000000
H     5.237000000     2.608000000    -0.008000000
O    -4.518000000    -1.996000000    -0.994000000
H    -5.195000000    -1.846000000    -0.334000000
H    -4.235000000    -2.898000000    -0.847000000
O    -0.826000000    -2.550000000     5.207000000
H    -0.503000000    -3.153000000     5.877000000
H    -0.034000000    -2.191000000     4.806000000
O     1.314000000    -1.075000000     4.819000000
H     1.787000000    -0.914000000     4.003000000
H     1.091000000    -0.203000000     5.143000000
O     1.161000000    -4.448000000    -6.137000000
H     0.760000000    -4.892000000    -6.884000000
H     0.531000000    -4.563000000    -5.425000000
O     3.851000000    -1.536000000    -1.773000000
H     3.086000000    -1.378000000    -2.326000000
H     3.656000000    -1.077000000    -0.956000000
O     6.364000000    -0.533000000    -3.076000000
H     6.044000000    -0.767000000    -3.947000000
H     5.611000000    -0.667000000    -2.500000000
O    -1.101000000     4.537000000     1.383000000
H    -0.370000000     4.234000000     0.844000000
H    -1.177000000     5.469000000     1.182000000
O     3.471000000    -4.499000000    -2.236000000
H     3.616000000    -3.835000000    -2.910000000
H     3.675000000    -4.055000000    -1.413000000
O     1.619000000     3.358000000     3.277000000
H     1.986000000     2.997000000     4.084000000
H     0.835000000     3.828000000     3.560000000
