161
-3044.55642
C     1.440000000     0.130000000    -0.484000000
H     2.476000000     0.296000000    -0.770000000
C     1.020000000    -0.387000000     0.745000000
H     1.812000000    -0.581000000     1.463000000
C    -0.304000000    -0.457000000     1.089000000
C    -0.693000000    -0.900000000     2.507000000
H    -1.602000000    -0.323000000     2.686000000
H    -0.879000000    -1.970000000     2.626000000
H     0.048000000    -0.604000000     3.253000000
C    -1.322000000    -0.148000000     0.184000000
H    -2.372000000    -0.157000000     0.464000000
C    -0.917000000     0.291000000    -1.047000000
H    -1.669000000     0.587000000    -1.774000000
C     0.403000000     0.556000000    -1.425000000
C     0.786000000     1.042000000    -2.826000000
O     0.007000000     0.861000000    -3.715000000
O     1.759000000     1.767000000    -2.978000000
O     5.819000000    -2.369000000     0.973000000
H     4.962000000    -2.089000000     1.294000000
H     6.430000000    -1.722000000     1.325000000
O     0.153000000    -0.896000000     6.509000000
H     0.160000000    -1.656000000     5.927000000
H     0.260000000    -1.266000000     7.386000000
O     1.561000000     2.681000000     3.765000000
H     1.897000000     2.689000000     2.869000000
H     2.269000000     2.299000000     4.283000000
O     3.191000000    -2.808000000    -2.138000000
H     3.986000000    -2.764000000    -1.608000000
H     2.487000000    -2.947000000    -1.504000000
O     4.699000000     0.466000000    -2.308000000
H     4.555000000    -0.331000000    -2.817000000
H     4.231000000     1.147000000    -2.792000000
O     3.730000000     6.031000000    -0.603000000
H     3.241000000     5.473000000    -1.207000000
H     4.648000000     5.816000000    -0.770000000
O     0.755000000    -0.713000000    -5.669000000
H     1.216000000    -1.376000000    -5.154000000
H     0.567000000    -0.012000000    -5.044000000
O    -0.216000000    -3.686000000     5.512000000
H     0.054000000    -3.614000000     4.596000000
H     0.409000000    -4.301000000     5.897000000
O     5.847000000     0.522000000    -4.905000000
H     6.262000000     1.310000000    -4.555000000
H     4.923000000     0.758000000    -4.994000000
O     2.472000000     2.431000000     1.137000000
H     2.026000000     1.609000000     0.935000000
H     2.535000000     2.883000000     0.296000000
O    -4.423000000    -3.443000000     1.026000000
H    -4.069000000    -4.311000000     1.219000000
H    -4.216000000    -3.299000000     0.103000000
O    -1.481000000     2.882000000    -3.556000000
H    -1.086000000     3.421000000    -2.870000000
H    -0.886000000     2.138000000    -3.649000000
O    -3.619000000     2.370000000    -1.942000000
H    -3.065000000     2.736000000    -2.632000000
H    -3.282000000     2.756000000    -1.134000000
O     6.440000000     0.909000000    -0.128000000
H     6.139000000     1.783000000     0.118000000
H     6.024000000     0.742000000    -0.974000000
O     1.660000000     2.521000000    -5.956000000
H     2.364000000     1.892000000    -5.797000000
H     1.097000000     2.451000000    -5.186000000
O    -1.384000000    -3.247000000     0.303000000
H    -1.983000000    -2.563000000     0.601000000
H    -1.531000000    -3.300000000    -0.642000000
O     3.625000000    -1.940000000    -4.757000000
H     4.189000000    -2.577000000    -5.194000000
H     3.433000000    -2.334000000    -3.906000000
O     1.145000000    -3.302000000    -0.403000000
H     1.773000000    -3.840000000     0.079000000
H     0.346000000    -3.336000000     0.123000000
O     0.047000000    -3.946000000    -5.780000000
H     0.558000000    -4.666000000    -5.411000000
H     0.181000000    -3.220000000    -5.171000000
O    -1.360000000     4.403000000    -6.133000000
H    -1.280000000     4.010000000    -5.264000000
H    -1.237000000     3.672000000    -6.739000000
O    -0.441000000     1.765000000     5.243000000
H    -0.084000000     0.928000000     5.540000000
H     0.256000000     2.147000000     4.709000000
O     4.456000000     1.520000000     5.014000000
H     3.995000000     0.682000000     5.047000000
H     4.797000000     1.571000000     4.121000000
O    -1.581000000    -5.620000000     1.845000000
H    -0.906000000    -5.490000000     2.512000000
H    -1.623000000    -4.785000000     1.381000000
O    -6.531000000    -1.365000000     0.552000000
H    -5.749000000    -1.856000000     0.802000000
H    -7.247000000    -1.806000000     1.009000000
O     5.345000000     2.356000000     2.490000000
H     5.686000000     3.053000000     3.050000000
H     5.168000000     2.786000000     1.653000000
O     3.607000000    -1.703000000     2.709000000
H     3.456000000    -2.510000000     3.201000000
H     3.269000000    -1.010000000     3.276000000
O     6.151000000     3.979000000    -2.705000000
H     6.795000000     4.234000000    -3.365000000
H     5.409000000     3.645000000    -3.211000000
O    -3.221000000    -3.116000000     6.120000000
H    -2.274000000    -3.228000000     6.196000000
H    -3.330000000    -2.236000000     5.758000000
O    -0.521000000     4.610000000    -1.090000000
H    -1.165000000     3.966000000    -0.796000000
H    -1.025000000     5.416000000    -1.210000000
O    -4.986000000     1.253000000     5.570000000
H    -4.951000000     1.299000000     6.526000000
H    -5.099000000     0.322000000     5.379000000
O     2.015000000     3.868000000    -1.360000000
H     1.107000000     4.169000000    -1.335000000
H     2.066000000     3.328000000    -2.149000000
O    -0.362000000    -0.789000000    -7.967000000
H    -1.309000000    -0.813000000    -7.827000000
H     0.009000000    -0.738000000    -7.087000000
O    -4.304000000    -1.737000000    -3.189000000
H    -4.602000000    -1.150000000    -2.494000000
H    -4.305000000    -1.195000000    -3.978000000
O    -0.444000000     2.048000000    -7.739000000
H     0.380000000     2.274000000    -7.307000000
H    -0.488000000     1.093000000    -7.689000000
O     3.214000000     0.475000000    -5.823000000
H     3.526000000     0.248000000    -6.699000000
H     3.197000000    -0.357000000    -5.351000000
O    -4.218000000    -1.020000000     2.497000000
H    -4.384000000    -1.837000000     2.026000000
H    -4.787000000    -1.066000000     3.265000000
O     2.882000000    -0.575000000     5.507000000
H     3.448000000    -1.220000000     5.932000000
H     2.149000000    -0.464000000     6.112000000
O     4.044000000     2.800000000    -4.088000000
H     3.207000000     2.648000000    -3.651000000
H     3.815000000     3.276000000    -4.886000000
O    -3.141000000    -3.567000000    -1.674000000
H    -3.321000000    -4.421000000    -2.067000000
H    -3.581000000    -2.941000000    -2.249000000
O     0.940000000    -4.314000000     3.235000000
H     1.050000000    -4.968000000     2.544000000
H     1.817000000    -4.206000000     3.604000000
O    -2.068000000     2.843000000     0.301000000
H    -1.466000000     2.099000000     0.286000000
H    -2.006000000     3.183000000     1.194000000
O    -5.392000000     1.986000000     1.668000000
H    -4.578000000     1.493000000     1.570000000
H    -5.919000000     1.461000000     2.271000000
O     0.002000000    -2.393000000    -3.340000000
H     0.561000000    -2.061000000    -2.637000000
H    -0.728000000    -1.775000000    -3.379000000
O    -5.461000000     0.072000000    -1.552000000
H    -5.792000000    -0.413000000    -0.796000000
H    -5.110000000     0.882000000    -1.181000000
O    -4.545000000     0.627000000    -4.978000000
H    -5.404000000     0.714000000    -4.564000000
H    -4.050000000     1.383000000    -4.663000000
O    -3.164000000    -0.680000000    -7.514000000
H    -3.854000000    -0.265000000    -8.033000000
H    -3.254000000    -0.293000000    -6.643000000
O    -1.422000000     3.179000000     2.978000000
H    -0.756000000     2.569000000     3.294000000
H    -1.630000000     3.722000000     3.738000000
O    -2.813000000    -0.683000000     5.499000000
H    -2.185000000    -0.275000000     4.903000000
H    -3.201000000     0.051000000     5.977000000
