161
-3041.39392
C     1.431000000     0.165000000     0.272000000
H     2.498000000     0.109000000     0.477000000
C     0.638000000    -0.819000000     0.890000000
H     1.178000000    -1.513000000     1.530000000
C    -0.712000000    -0.891000000     0.534000000
C    -1.583000000    -2.100000000     0.904000000
H    -1.478000000    -2.743000000     0.027000000
H    -1.247000000    -2.610000000     1.810000000
H    -2.625000000    -1.807000000     1.043000000
C    -1.250000000     0.173000000    -0.279000000
H    -2.290000000    -0.018000000    -0.530000000
C    -0.477000000     1.202000000    -0.856000000
H    -0.988000000     2.009000000    -1.375000000
C     0.912000000     1.199000000    -0.536000000
C     1.768000000     2.280000000    -1.131000000
O     1.262000000     3.266000000    -1.673000000
O     2.956000000     2.099000000    -1.112000000
O    -0.276000000     7.078000000    -2.732000000
H    -0.736000000     6.513000000    -2.111000000
H     0.484000000     6.564000000    -3.006000000
O    -0.583000000     2.756000000     2.192000000
H    -0.763000000     2.433000000     3.076000000
H    -0.851000000     2.039000000     1.617000000
O     2.665000000    -3.494000000     2.935000000
H     3.233000000    -4.193000000     3.261000000
H     2.818000000    -3.483000000     1.990000000
O     0.492000000    -3.159000000    -4.361000000
H     0.499000000    -3.576000000    -5.223000000
H     0.683000000    -3.869000000    -3.749000000
O     2.686000000     7.071000000    -1.030000000
H     3.366000000     6.418000000    -0.864000000
H     1.910000000     6.726000000    -0.588000000
O    -4.767000000     3.912000000    -2.313000000
H    -4.385000000     4.773000000    -2.489000000
H    -4.345000000     3.624000000    -1.504000000
O     0.806000000     6.274000000    -5.599000000
H     0.904000000     5.646000000    -4.883000000
H     1.617000000     6.192000000    -6.101000000
O     3.509000000    -1.068000000     3.968000000
H     3.940000000    -0.939000000     3.123000000
H     3.100000000    -1.931000000     3.899000000
O     3.798000000     4.337000000     0.207000000
H     3.525000000     3.581000000    -0.313000000
H     4.628000000     4.069000000     0.602000000
O    -6.780000000    -1.091000000     2.864000000
H    -6.336000000    -1.918000000     3.051000000
H    -7.574000000    -1.347000000     2.395000000
O    -0.245000000     5.090000000    -0.671000000
H     0.092000000     5.522000000     0.114000000
H     0.408000000     4.420000000    -0.875000000
O    -2.723000000     0.643000000    -4.153000000
H    -3.246000000     1.210000000    -4.719000000
H    -1.927000000     1.146000000    -3.979000000
O     0.469000000    -5.572000000     2.065000000
H     1.227000000    -6.155000000     2.083000000
H     0.802000000    -4.757000000     1.689000000
O     6.944000000     3.630000000     0.966000000
H     6.789000000     3.073000000     0.203000000
H     7.653000000     3.195000000     1.440000000
O     0.283000000     2.269000000    -4.529000000
H     0.988000000     2.574000000    -3.958000000
H     0.397000000     1.319000000    -4.563000000
O     2.156000000    -2.833000000    -1.561000000
H     1.423000000    -2.253000000    -1.354000000
H     2.678000000    -2.342000000    -2.195000000
O     6.761000000     1.753000000    -1.170000000
H     7.313000000     1.040000000    -1.492000000
H     5.894000000     1.360000000    -1.073000000
O    -5.410000000    -5.264000000    -0.265000000
H    -5.848000000    -5.415000000    -1.103000000
H    -4.936000000    -4.442000000    -0.388000000
O     2.027000000     3.458000000     2.487000000
H     1.178000000     3.022000000     2.412000000
H     2.184000000     3.828000000     1.619000000
O     1.186000000    -5.017000000    -2.651000000
H     1.821000000    -5.720000000    -2.518000000
H     1.677000000    -4.214000000    -2.476000000
O     1.342000000     0.598000000     3.906000000
H     2.220000000     0.248000000     4.060000000
H     1.158000000     0.389000000     2.990000000
O     3.686000000    -4.637000000    -0.085000000
H     3.586000000    -5.515000000    -0.453000000
H     3.182000000    -4.073000000    -0.671000000
O     3.499000000     2.295000000    -4.348000000
H     4.266000000     2.853000000    -4.226000000
H     3.237000000     2.050000000    -3.460000000
O    -7.402000000    -2.013000000     0.357000000
H    -6.665000000    -2.500000000     0.725000000
H    -7.487000000    -2.345000000    -0.537000000
O    -1.527000000     3.781000000    -3.014000000
H    -1.236000000     3.042000000    -3.549000000
H    -0.962000000     3.754000000    -2.242000000
O     3.980000000    -1.490000000    -3.082000000
H     3.992000000    -1.384000000    -4.033000000
H     4.629000000    -2.172000000    -2.909000000
O    -2.410000000    -5.895000000     1.630000000
H    -2.587000000    -5.563000000     0.750000000
H    -1.467000000    -5.778000000     1.745000000
O    -3.832000000    -3.985000000     3.254000000
H    -3.761000000    -4.337000000     4.141000000
H    -3.319000000    -4.587000000     2.715000000
O     4.646000000     0.024000000    -1.000000000
H     4.530000000    -0.410000000    -1.845000000
H     4.040000000     0.764000000    -1.025000000
O    -2.856000000    -4.082000000    -3.331000000
H    -2.190000000    -4.446000000    -2.747000000
H    -2.375000000    -3.839000000    -4.121000000
O    -1.767000000    -2.227000000    -5.061000000
H    -0.917000000    -2.252000000    -4.621000000
H    -2.223000000    -1.488000000    -4.656000000
O     1.761000000     5.274000000    -3.300000000
H     2.695000000     5.413000000    -3.457000000
H     1.711000000     4.403000000    -2.908000000
O    -0.699000000    -1.273000000     4.299000000
H    -0.652000000    -1.922000000     5.002000000
H     0.211000000    -1.015000000     4.150000000
O     7.508000000     4.390000000    -1.983000000
H     7.792000000     4.929000000    -1.246000000
H     7.086000000     3.632000000    -1.577000000
O     0.983000000     6.255000000     1.501000000
H     1.172000000     5.587000000     2.160000000
H     0.948000000     7.074000000     1.995000000
O    -6.404000000    -4.128000000     2.030000000
H    -5.605000000    -4.154000000     2.557000000
H    -6.184000000    -4.618000000     1.238000000
O    -2.358000000     0.741000000     2.830000000
H    -3.096000000     0.406000000     2.320000000
H    -1.919000000    -0.042000000     3.160000000
O    -4.265000000     3.056000000     2.780000000
H    -4.871000000     3.119000000     2.042000000
H    -3.487000000     2.633000000     2.415000000
O    -4.151000000    -2.938000000    -1.019000000
H    -3.493000000    -3.198000000    -1.665000000
H    -4.375000000    -2.038000000    -1.256000000
O    -1.387000000    -5.395000000    -1.368000000
H    -0.620000000    -5.178000000    -1.898000000
H    -1.110000000    -6.146000000    -0.843000000
O    -0.924000000    -5.816000000     4.386000000
H    -0.942000000    -5.012000000     4.906000000
H    -0.340000000    -5.615000000     3.654000000
O    -5.140000000     2.661000000     0.128000000
H    -6.058000000     2.763000000    -0.124000000
H    -5.082000000     1.766000000     0.461000000
O    -4.713000000    -0.525000000    -1.771000000
H    -4.275000000    -0.169000000    -2.544000000
H    -5.610000000    -0.197000000    -1.831000000
O    -3.213000000     5.902000000    -1.564000000
H    -3.179000000     6.859000000    -1.572000000
H    -2.473000000     5.631000000    -2.108000000
O     1.061000000    -0.441000000    -4.788000000
H     1.931000000    -0.383000000    -5.183000000
H     0.972000000    -1.361000000    -4.539000000
O    -3.204000000    -1.743000000     4.785000000
H    -3.279000000    -2.393000000     4.086000000
H    -2.268000000    -1.545000000     4.829000000
O     4.987000000    -0.911000000     1.638000000
H     4.891000000    -0.644000000     0.724000000
H     5.774000000    -1.456000000     1.646000000
O    -4.827000000    -0.023000000     1.141000000
H    -4.833000000    -0.555000000     0.345000000
H    -5.683000000    -0.178000000     1.539000000
