161
-3062.03562
C     1.161000000    -0.584000000    -0.795000000
H     2.050000000    -1.080000000    -1.177000000
C     0.521000000    -1.142000000     0.290000000
H     0.895000000    -2.074000000     0.708000000
C    -0.485000000    -0.532000000     0.975000000
C    -1.075000000    -1.042000000     2.286000000
H    -0.438000000    -0.844000000     3.150000000
H    -2.018000000    -0.571000000     2.573000000
H    -1.260000000    -2.115000000     2.197000000
C    -0.991000000     0.625000000     0.405000000
H    -1.794000000     1.128000000     0.938000000
C    -0.481000000     1.181000000    -0.738000000
H    -0.980000000     2.111000000    -0.997000000
C     0.607000000     0.524000000    -1.347000000
C     1.266000000     1.307000000    -2.500000000
O     0.613000000     2.095000000    -3.152000000
O     2.408000000     1.018000000    -2.821000000
O    -4.148000000     3.585000000    -0.687000000
H    -3.525000000     4.293000000    -0.852000000
H    -4.822000000     3.697000000    -1.357000000
O    -2.652000000    -1.495000000     7.461000000
H    -3.345000000    -2.019000000     7.864000000
H    -2.136000000    -2.126000000     6.958000000
O     0.482000000     5.710000000    -1.527000000
H     1.149000000     5.685000000    -2.212000000
H     0.763000000     5.049000000    -0.894000000
O     0.266000000     1.106000000     4.748000000
H     0.724000000     1.546000000     5.464000000
H     0.943000000     0.586000000     4.315000000
O    -0.990000000     3.458000000     2.971000000
H    -0.768000000     3.857000000     3.813000000
H    -0.503000000     2.633000000     2.962000000
O    -3.514000000     4.663000000     2.673000000
H    -2.664000000     4.228000000     2.736000000
H    -4.144000000     3.948000000     2.591000000
O    -1.094000000    -5.280000000     2.254000000
H    -1.697000000    -4.558000000     2.430000000
H    -1.483000000    -6.032000000     2.700000000
O     5.048000000     5.196000000    -0.187000000
H     4.786000000     4.532000000    -0.825000000
H     4.223000000     5.551000000     0.142000000
O    -0.954000000    -3.794000000     5.473000000
H    -1.247000000    -3.680000000     4.569000000
H    -0.038000000    -3.518000000     5.465000000
O     2.773000000    -4.014000000    -4.855000000
H     3.577000000    -4.525000000    -4.765000000
H     2.093000000    -4.666000000    -5.027000000
O    -1.846000000     3.236000000    -2.882000000
H    -2.059000000     3.188000000    -3.814000000
H    -0.943000000     2.924000000    -2.826000000
O     1.139000000     6.030000000    -5.533000000
H     1.546000000     6.880000000    -5.365000000
H     0.432000000     6.221000000    -6.150000000
O     1.760000000    -5.159000000     2.185000000
H     1.858000000    -5.613000000     3.022000000
H     0.815000000    -5.049000000     2.082000000
O     3.473000000     4.764000000    -4.524000000
H     2.825000000     5.167000000    -5.102000000
H     3.006000000     4.629000000    -3.699000000
O     2.274000000     3.922000000    -2.437000000
H     2.237000000     3.739000000    -1.499000000
H     1.728000000     3.245000000    -2.836000000
O     5.127000000     3.080000000    -2.202000000
H     5.107000000     2.124000000    -2.175000000
H     4.649000000     3.307000000    -3.000000000
O    -0.285000000     1.161000000    -7.896000000
H    -0.063000000     1.895000000    -7.323000000
H    -0.068000000     1.470000000    -8.776000000
O     4.288000000    -2.303000000    -3.330000000
H     5.118000000    -2.684000000    -3.617000000
H     3.645000000    -2.999000000    -3.467000000
O     3.720000000    -1.049000000     1.294000000
H     3.979000000    -1.678000000     0.620000000
H     2.972000000    -0.586000000     0.915000000
O    -0.907000000    -3.100000000    -1.848000000
H    -0.886000000    -4.055000000    -1.919000000
H    -0.463000000    -2.791000000    -2.638000000
O    -5.964000000     1.123000000     4.773000000
H    -5.273000000     1.727000000     5.045000000
H    -5.514000000     0.468000000     4.241000000
O     3.057000000    -0.079000000     3.782000000
H     3.390000000    -0.544000000     3.014000000
H     3.167000000    -0.699000000     4.503000000
O     2.387000000    -4.519000000    -0.635000000
H     1.609000000    -4.732000000    -1.149000000
H     2.161000000    -4.772000000     0.260000000
O     1.815000000    -3.954000000     6.136000000
H     2.009000000    -3.027000000     5.994000000
H     1.558000000    -4.006000000     7.057000000
O     4.167000000     1.391000000    -5.300000000
H     4.079000000     2.322000000    -5.097000000
H     3.536000000     0.960000000    -4.723000000
O    -2.432000000     0.278000000     5.288000000
H    -1.522000000     0.560000000     5.376000000
H    -2.610000000    -0.213000000     6.090000000
O     4.113000000    -6.589000000     1.346000000
H     3.872000000    -7.345000000     1.880000000
H     3.379000000    -5.983000000     1.442000000
O    -1.327000000     0.396000000    -4.156000000
H    -1.604000000     0.217000000    -3.258000000
H    -0.460000000     0.791000000    -4.066000000
O     3.010000000     2.262000000     2.592000000
H     2.756000000     1.579000000     3.213000000
H     3.609000000     1.825000000     1.987000000
O    -3.444000000    -3.918000000     3.083000000
H    -4.222000000    -3.965000000     3.638000000
H    -3.772000000    -4.065000000     2.196000000
O     4.942000000     0.445000000    -2.380000000
H     4.958000000    -0.483000000    -2.611000000
H     4.024000000     0.700000000    -2.476000000
O    -3.157000000    -1.882000000    -1.252000000
H    -3.214000000    -1.331000000    -2.033000000
H    -2.265000000    -2.227000000    -1.267000000
O     0.126000000     3.091000000    -5.675000000
H     0.534000000     3.949000000    -5.791000000
H     0.367000000     2.829000000    -4.787000000
O     3.785000000    -1.265000000    -6.194000000
H     3.280000000    -1.595000000    -5.450000000
H     4.204000000    -0.470000000    -5.865000000
O    -4.411000000    -0.691000000     3.667000000
H    -4.043000000    -0.791000000     2.789000000
H    -3.671000000    -0.412000000     4.207000000
O     1.442000000     3.469000000     0.304000000
H     2.241000000     3.262000000     0.789000000
H     0.809000000     2.812000000     0.594000000
O    -4.547000000    -3.986000000     0.158000000
H    -4.066000000    -3.175000000    -0.011000000
H    -4.667000000    -4.377000000    -0.707000000
O     0.355000000    -2.588000000    -4.267000000
H     0.076000000    -2.349000000    -5.151000000
H     1.148000000    -3.107000000    -4.398000000
O     4.367000000    -2.622000000    -0.621000000
H     3.835000000    -3.416000000    -0.657000000
H     4.377000000    -2.299000000    -1.522000000
O     2.859000000    -1.617000000     6.161000000
H     2.622000000    -0.749000000     6.489000000
H     3.689000000    -1.818000000     6.593000000
O    -4.870000000     2.582000000     1.588000000
H    -4.613000000     3.001000000     0.767000000
H    -4.812000000     1.644000000     1.406000000
O    -3.610000000     0.936000000    -1.833000000
H    -3.368000000     1.857000000    -1.922000000
H    -3.891000000     0.849000000    -0.922000000
O    -4.043000000     0.938000000    -5.399000000
H    -3.236000000     0.546000000    -5.065000000
H    -4.198000000     1.690000000    -4.827000000
O    -2.196000000     5.493000000    -1.618000000
H    -2.136000000     4.756000000    -2.226000000
H    -1.323000000     5.554000000    -1.229000000
O    -0.831000000    -1.305000000    -6.417000000
H    -0.587000000    -0.665000000    -7.086000000
H    -1.058000000    -0.776000000    -5.652000000
O    -6.668000000    -2.531000000     4.879000000
H    -7.225000000    -2.719000000     4.124000000
H    -6.083000000    -1.835000000     4.578000000
O     4.781000000     1.650000000     0.366000000
H     5.015000000     2.397000000    -0.185000000
H     4.833000000     0.895000000    -0.219000000
O    -4.427000000    -0.441000000     0.654000000
H    -5.197000000    -0.997000000     0.776000000
H    -3.888000000    -0.915000000     0.021000000
