161
-3045.20164
C     1.447000000    -0.531000000     0.169000000
H     2.389000000    -1.047000000     0.335000000
C     0.445000000    -0.651000000     1.111000000
H     0.644000000    -1.099000000     2.081000000
C    -0.851000000    -0.045000000     0.870000000
C    -1.968000000    -0.144000000     1.869000000
H    -2.565000000     0.753000000     2.045000000
H    -2.568000000    -1.013000000     1.591000000
H    -1.496000000    -0.245000000     2.848000000
C    -1.162000000     0.389000000    -0.391000000
H    -2.137000000     0.660000000    -0.790000000
C    -0.153000000     0.424000000    -1.364000000
H    -0.333000000     0.843000000    -2.351000000
C     1.121000000     0.004000000    -1.060000000
C     2.116000000     0.435000000    -2.084000000
O     1.779000000     0.631000000    -3.198000000
O     3.296000000     0.635000000    -1.689000000
O     1.114000000     2.503000000     5.968000000
H     0.211000000     2.639000000     5.678000000
H     1.164000000     1.567000000     6.161000000
O    -2.942000000    -2.936000000     7.085000000
H    -2.303000000    -3.595000000     6.812000000
H    -2.537000000    -2.100000000     6.853000000
O     2.842000000     4.899000000    -2.764000000
H     2.244000000     4.572000000    -3.436000000
H     2.508000000     5.770000000    -2.548000000
O     3.006000000    -0.552000000     3.271000000
H     2.520000000    -0.371000000     2.466000000
H     3.577000000     0.207000000     3.382000000
O    -4.714000000     2.896000000     2.796000000
H    -3.882000000     3.035000000     2.344000000
H    -4.668000000     3.464000000     3.565000000
O    -2.464000000     4.000000000     1.597000000
H    -1.739000000     3.376000000     1.570000000
H    -2.678000000     4.157000000     0.678000000
O     4.966000000     4.254000000    -1.164000000
H     4.531000000     4.252000000    -2.016000000
H     5.782000000     3.776000000    -1.310000000
O     1.659000000    -4.090000000     4.242000000
H     1.401000000    -4.540000000     3.438000000
H     1.028000000    -4.390000000     4.897000000
O    -1.227000000     3.797000000    -4.518000000
H    -1.778000000     3.080000000    -4.204000000
H    -1.591000000     4.022000000    -5.374000000
O     3.510000000     1.835000000    -6.069000000
H     3.013000000     1.837000000    -5.251000000
H     3.105000000     2.523000000    -6.597000000
O    -5.584000000    -1.269000000     0.142000000
H    -6.510000000    -1.026000000     0.125000000
H    -5.214000000    -0.753000000     0.857000000
O    -3.089000000     2.192000000    -3.035000000
H    -4.037000000     2.180000000    -3.168000000
H    -2.828000000     1.273000000    -3.095000000
O    -2.018000000    -3.612000000     3.484000000
H    -2.942000000    -3.487000000     3.267000000
H    -1.944000000    -3.319000000     4.392000000
O    -0.350000000     4.767000000    -0.910000000
H     0.363000000     4.140000000    -0.792000000
H     0.054000000     5.508000000    -1.361000000
O     1.859000000     3.121000000    -0.269000000
H     2.250000000     2.250000000    -0.343000000
H     2.396000000     3.673000000    -0.836000000
O    -2.743000000     3.932000000    -1.023000000
H    -1.874000000     4.329000000    -1.082000000
H    -2.794000000     3.352000000    -1.782000000
O     6.019000000     0.773000000    -6.472000000
H     5.192000000     1.116000000    -6.135000000
H     6.223000000     0.034000000    -5.899000000
O    -1.115000000     3.577000000     4.545000000
H    -0.900000000     3.290000000     3.657000000
H    -0.687000000     4.428000000     4.632000000
O     5.285000000    -0.310000000    -0.073000000
H     4.507000000    -0.107000000    -0.593000000
H     5.973000000    -0.462000000    -0.720000000
O     3.336000000    -1.543000000    -3.903000000
H     4.160000000    -1.062000000    -3.834000000
H     2.680000000    -0.949000000    -3.539000000
O     7.091000000    -0.643000000    -4.480000000
H     7.397000000    -1.253000000    -3.809000000
H     6.590000000     0.013000000    -3.997000000
O     5.689000000    -4.150000000     1.586000000
H     5.142000000    -3.775000000     2.276000000
H     5.081000000    -4.333000000     0.871000000
O     3.951000000    -3.047000000     3.382000000
H     3.281000000    -3.491000000     3.902000000
H     3.581000000    -2.182000000     3.205000000
O    -7.308000000     3.261000000     2.099000000
H    -6.361000000     3.212000000     2.232000000
H    -7.438000000     2.972000000     1.196000000
O     4.264000000    -4.403000000    -0.806000000
H     3.489000000    -4.674000000    -1.299000000
H     4.988000000    -4.501000000    -1.425000000
O     2.988000000    -1.297000000    -6.967000000
H     3.077000000    -0.348000000    -7.057000000
H     2.715000000    -1.427000000    -6.059000000
O     7.164000000     3.119000000    -1.986000000
H     6.670000000     3.035000000    -2.801000000
H     7.461000000     2.229000000    -1.793000000
O    -2.645000000     1.449000000     5.162000000
H    -2.166000000     1.238000000     5.964000000
H    -2.319000000     2.312000000     4.907000000
O    -0.442000000    -2.740000000    -2.978000000
H    -0.934000000    -2.764000000    -3.799000000
H    -0.848000000    -2.033000000    -2.476000000
O     7.151000000    -1.861000000     1.404000000
H     6.849000000    -2.750000000     1.592000000
H     6.607000000    -1.575000000     0.670000000
O     5.072000000     1.050000000    -3.426000000
H     4.401000000     0.976000000    -2.748000000
H     5.143000000     1.990000000    -3.592000000
O     2.005000000    -3.825000000    -2.711000000
H     1.125000000    -3.583000000    -3.001000000
H     2.560000000    -3.101000000    -3.002000000
O     0.333000000     1.313000000    -7.312000000
H     0.312000000     0.733000000    -6.551000000
H     1.187000000     1.150000000    -7.713000000
O     0.382000000    -0.242000000    -5.093000000
H    -0.064000000    -1.047000000    -4.828000000
H     0.732000000     0.117000000    -4.278000000
O    -3.575000000    -1.150000000     4.388000000
H    -2.995000000    -0.396000000     4.284000000
H    -4.429000000    -0.839000000     4.089000000
O     5.118000000     3.650000000    -4.134000000
H     4.167000000     3.755000000    -4.105000000
H     5.363000000     3.935000000    -5.014000000
O     0.505000000    -4.906000000    -0.675000000
H     1.016000000    -4.449000000    -1.342000000
H     0.063000000    -4.208000000    -0.192000000
O     0.213000000     2.828000000     2.050000000
H     0.728000000     2.510000000     1.308000000
H     0.854000000     2.955000000     2.749000000
O    -3.068000000    -5.524000000     1.048000000
H    -3.864000000    -5.020000000     1.215000000
H    -2.384000000    -4.863000000     0.941000000
O    -0.980000000    -3.475000000     1.008000000
H    -1.018000000    -2.564000000     0.719000000
H    -1.299000000    -3.454000000     1.911000000
O    -5.128000000    -3.932000000     2.330000000
H    -5.965000000    -3.746000000     1.904000000
H    -5.277000000    -3.726000000     3.253000000
O    -4.642000000    -2.571000000    -2.360000000
H    -4.786000000    -2.342000000    -1.442000000
H    -5.072000000    -3.420000000    -2.466000000
O    -2.940000000    -0.559000000    -3.160000000
H    -3.357000000    -1.249000000    -2.643000000
H    -3.185000000    -0.757000000    -4.064000000
O     1.449000000     2.912000000    -4.326000000
H     0.534000000     3.177000000    -4.419000000
H     1.410000000     2.074000000    -3.865000000
O    -5.613000000     0.158000000     3.026000000
H    -5.237000000     1.033000000     2.931000000
H    -6.559000000     0.298000000     2.978000000
O    -4.839000000    -3.620000000     4.981000000
H    -4.426000000    -4.097000000     5.700000000
H    -4.396000000    -2.772000000     4.970000000
O     4.323000000     1.994000000     2.516000000
H     4.823000000     2.722000000     2.146000000
H     3.482000000     2.381000000     2.759000000
O     0.171000000    -2.267000000     6.812000000
H     0.648000000    -2.353000000     5.987000000
H     0.550000000    -1.492000000     7.228000000
