161
-3055.80834
C     1.278000000     0.591000000     0.364000000
H     2.224000000     0.931000000     0.779000000
C     0.039000000     0.961000000     0.907000000
H    -0.083000000     1.637000000     1.749000000
C    -1.076000000     0.168000000     0.581000000
C    -2.370000000     0.307000000     1.359000000
H    -2.106000000     0.935000000     2.212000000
H    -3.130000000     0.859000000     0.802000000
H    -2.786000000    -0.583000000     1.837000000
C    -0.952000000    -0.790000000    -0.451000000
H    -1.770000000    -1.483000000    -0.631000000
C     0.211000000    -0.835000000    -1.195000000
H     0.306000000    -1.540000000    -2.017000000
C     1.342000000    -0.197000000    -0.769000000
C     2.630000000    -0.298000000    -1.603000000
O     2.607000000    -0.975000000    -2.667000000
O     3.643000000     0.315000000    -1.251000000
O     6.957000000     1.856000000    -0.425000000
H     7.131000000     1.918000000     0.514000000
H     7.524000000     2.519000000    -0.818000000
O     6.229000000     3.561000000     2.025000000
H     6.270000000     3.624000000     2.979000000
H     5.293000000     3.581000000     1.824000000
O    -4.377000000    -0.809000000     4.749000000
H    -3.461000000    -1.047000000     4.892000000
H    -4.447000000     0.086000000     5.082000000
O    -4.413000000     3.264000000    -1.122000000
H    -4.049000000     3.604000000    -0.305000000
H    -3.646000000     3.060000000    -1.659000000
O     0.680000000     4.665000000     2.478000000
H    -0.165000000     4.217000000     2.445000000
H     0.560000000     5.443000000     1.933000000
O    -1.292000000    -4.993000000     2.334000000
H    -1.571000000    -4.609000000     3.164000000
H    -1.669000000    -5.873000000     2.339000000
O     1.526000000     5.125000000    -1.908000000
H     2.301000000     4.608000000    -2.129000000
H     0.876000000     4.478000000    -1.635000000
O    -1.319000000     1.944000000    -2.194000000
H    -0.703000000     1.631000000    -2.857000000
H    -2.028000000     1.301000000    -2.203000000
O    -0.766000000    -5.344000000    -3.144000000
H    -0.536000000    -6.222000000    -3.449000000
H     0.073000000    -4.892000000    -3.058000000
O    -5.410000000     0.290000000    -0.760000000
H    -6.355000000     0.314000000    -0.608000000
H    -5.163000000     1.208000000    -0.877000000
O     5.043000000    -1.571000000    -3.778000000
H     4.402000000    -1.538000000    -3.068000000
H     4.798000000    -2.344000000    -4.287000000
O     2.831000000     1.077000000     3.301000000
H     2.998000000     1.896000000     2.835000000
H     3.694000000     0.792000000     3.602000000
O     4.156000000     2.839000000    -0.854000000
H     5.077000000     2.692000000    -1.072000000
H     3.749000000     1.978000000    -0.942000000
O     3.592000000     3.874000000    -3.543000000
H     4.318000000     4.494000000    -3.622000000
H     4.008000000     3.012000000    -3.588000000
O    -1.885000000    -1.338000000     5.348000000
H    -1.773000000    -2.272000000     5.168000000
H    -1.036000000    -0.949000000     5.137000000
O    -7.145000000     1.576000000     1.736000000
H    -7.549000000     0.963000000     1.122000000
H    -6.986000000     1.056000000     2.524000000
O    -5.007000000     3.482000000     3.365000000
H    -5.281000000     2.884000000     2.670000000
H    -5.814000000     3.918000000     3.638000000
O    -3.435000000     4.690000000     0.801000000
H    -2.887000000     4.434000000     1.543000000
H    -3.923000000     5.452000000     1.115000000
O     5.416000000    -0.475000000     0.430000000
H     6.029000000     0.224000000     0.203000000
H     4.594000000    -0.217000000     0.012000000
O    -0.477000000     3.722000000    -0.439000000
H    -0.111000000     3.156000000     0.241000000
H    -0.677000000     3.128000000    -1.163000000
O     4.916000000     1.353000000    -3.558000000
H     4.369000000     0.792000000    -4.106000000
H     4.623000000     1.175000000    -2.664000000
O     0.650000000    -3.907000000    -5.811000000
H     0.935000000    -3.464000000    -6.611000000
H     1.162000000    -3.496000000    -5.114000000
O    -2.249000000    -3.623000000    -5.579000000
H    -1.384000000    -3.957000000    -5.342000000
H    -2.832000000    -4.376000000    -5.477000000
O    -3.758000000    -3.976000000     1.775000000
H    -4.107000000    -3.896000000     0.887000000
H    -2.874000000    -4.322000000     1.654000000
O    -0.362000000     2.830000000     5.525000000
H     0.233000000     2.081000000     5.565000000
H    -0.700000000     2.915000000     6.416000000
O     0.509000000    -3.218000000     0.940000000
H     0.008000000    -3.651000000     1.631000000
H    -0.063000000    -2.514000000     0.634000000
O    -5.438000000    -2.494000000     3.097000000
H    -4.948000000    -1.838000000     3.593000000
H    -4.765000000    -3.048000000     2.702000000
O     3.119000000     3.748000000     1.586000000
H     2.251000000     4.148000000     1.634000000
H     3.302000000     3.684000000     0.649000000
O    -0.347000000     0.532000000    -4.606000000
H    -0.775000000     1.135000000    -5.215000000
H    -1.066000000     0.146000000    -4.106000000
O     1.473000000    -5.128000000    -0.885000000
H     1.052000000    -4.540000000    -0.259000000
H     2.307000000    -5.357000000    -0.474000000
O     2.101000000    -0.438000000    -5.120000000
H     2.295000000    -0.751000000    -4.236000000
H     1.206000000    -0.104000000    -5.064000000
O     0.804000000     5.236000000     5.138000000
H     0.659000000     4.954000000     4.235000000
H     0.746000000     4.431000000     5.653000000
O     7.432000000    -0.291000000    -3.721000000
H     6.677000000    -0.879000000    -3.700000000
H     7.074000000     0.568000000    -3.499000000
O     2.568000000    -2.005000000     2.445000000
H     1.805000000    -2.362000000     1.989000000
H     2.207000000    -1.343000000     3.034000000
O     4.891000000    -3.451000000    -5.717000000
H     4.187000000    -4.100000000    -5.697000000
H     4.677000000    -2.889000000    -6.462000000
O     5.345000000    -2.364000000     2.178000000
H     4.469000000    -2.320000000     2.562000000
H     5.310000000    -1.765000000     1.432000000
O     1.756000000    -3.768000000    -3.183000000
H     1.837000000    -4.114000000    -2.295000000
H     2.069000000    -2.866000000    -3.118000000
O    -2.023000000     3.834000000     3.441000000
H    -1.458000000     3.446000000     4.108000000
H    -2.886000000     3.455000000     3.607000000
O    -2.577000000    -0.426000000    -3.135000000
H    -3.148000000    -1.086000000    -3.528000000
H    -2.295000000    -0.816000000    -2.308000000
O     0.579000000    -0.251000000     3.979000000
H     0.213000000    -0.165000000     3.099000000
H     1.407000000     0.227000000     3.943000000
O    -5.166000000    -3.832000000    -0.637000000
H    -5.702000000    -3.063000000    -0.833000000
H    -4.478000000    -3.819000000    -1.302000000
O    -2.049000000     5.431000000    -1.818000000
H    -2.660000000     5.634000000    -1.110000000
H    -1.369000000     4.901000000    -1.403000000
O    -4.926000000     1.800000000     5.778000000
H    -4.995000000     2.221000000     4.922000000
H    -4.488000000     2.449000000     6.330000000
O    -3.288000000    -3.670000000    -2.597000000
H    -3.798000000    -3.609000000    -3.405000000
H    -2.437000000    -4.009000000    -2.875000000
O    -6.177000000    -1.790000000    -2.384000000
H    -5.697000000    -2.001000000    -3.185000000
H    -5.778000000    -0.977000000    -2.073000000
O    -7.068000000     3.141000000    -0.702000000
H    -6.127000000     3.259000000    -0.829000000
H    -7.137000000     2.580000000     0.071000000
O     4.744000000    -0.427000000    -6.143000000
H     3.856000000    -0.421000000    -5.787000000
H     5.265000000    -0.878000000    -5.479000000
O     7.985000000    -0.531000000     1.743000000
H     8.715000000    -1.013000000     1.355000000
H     7.204000000    -0.917000000     1.345000000
