161
-3021.20188
C     0.828000000     1.203000000    -0.073000000
H     1.445000000     2.090000000    -0.188000000
C    -0.238000000     1.107000000     0.833000000
H    -0.436000000     1.947000000     1.493000000
C    -0.880000000    -0.160000000     0.957000000
C    -2.095000000    -0.341000000     1.765000000
H    -1.850000000    -0.783000000     2.733000000
H    -2.496000000     0.670000000     1.870000000
H    -2.713000000    -1.057000000     1.220000000
C    -0.477000000    -1.160000000     0.106000000
H    -0.912000000    -2.156000000     0.118000000
C     0.534000000    -1.045000000    -0.841000000
H     0.780000000    -1.853000000    -1.526000000
C     1.196000000     0.169000000    -1.001000000
C     2.199000000     0.387000000    -2.126000000
O     2.303000000    -0.408000000    -3.026000000
O     2.818000000     1.391000000    -2.315000000
O     0.240000000     2.118000000     5.146000000
H     0.694000000     2.424000000     5.931000000
H    -0.492000000     1.599000000     5.479000000
O     2.744000000     2.439000000    -4.673000000
H     2.822000000     1.978000000    -3.837000000
H     2.041000000     3.073000000    -4.532000000
O     5.792000000     3.076000000     1.798000000
H     5.756000000     3.655000000     1.037000000
H     4.915000000     2.696000000     1.852000000
O    -3.446000000    -0.696000000     4.963000000
H    -4.356000000    -0.886000000     5.190000000
H    -3.503000000     0.003000000     4.311000000
O    -4.509000000    -4.099000000     1.443000000
H    -4.762000000    -4.118000000     0.520000000
H    -4.174000000    -4.978000000     1.618000000
O     3.208000000     3.930000000    -2.029000000
H     2.529000000     4.419000000    -1.565000000
H     2.807000000     3.081000000    -2.216000000
O    -4.559000000     4.543000000     3.022000000
H    -5.223000000     5.168000000     2.732000000
H    -3.797000000     5.083000000     3.232000000
O     2.315000000    -3.024000000    -3.409000000
H     2.536000000    -2.104000000    -3.262000000
H     1.536000000    -2.998000000    -3.965000000
O     1.591000000    -3.454000000     3.387000000
H     1.033000000    -2.682000000     3.481000000
H     1.280000000    -3.879000000     2.588000000
O    -3.284000000    -3.626000000     4.065000000
H    -3.377000000    -3.570000000     3.114000000
H    -3.055000000    -2.737000000     4.336000000
O     1.409000000    -0.079000000     4.142000000
H     0.734000000    -0.627000000     4.542000000
H     1.378000000     0.739000000     4.637000000
O     6.402000000    -1.534000000    -0.113000000
H     6.256000000    -2.003000000    -0.935000000
H     5.815000000    -0.780000000    -0.160000000
O    -1.761000000     2.637000000    -1.380000000
H    -1.121000000     2.118000000    -0.893000000
H    -2.515000000     2.056000000    -1.480000000
O    -0.125000000    -5.179000000    -3.088000000
H     0.228000000    -4.692000000    -2.343000000
H     0.627000000    -5.655000000    -3.440000000
O     2.899000000    -0.611000000    -8.055000000
H     2.691000000     0.323000000    -8.033000000
H     2.482000000    -0.968000000    -7.270000000
O    -3.870000000     1.901000000     3.849000000
H    -3.605000000     2.799000000     3.652000000
H    -4.564000000     1.712000000     3.217000000
O    -2.165000000     4.242000000     0.860000000
H    -1.591000000     3.642000000     0.384000000
H    -1.708000000     5.083000000     0.833000000
O     1.099000000     5.159000000    -0.955000000
H     0.166000000     5.097000000    -1.159000000
H     1.314000000     6.082000000    -1.093000000
O     4.801000000     0.695000000    -0.203000000
H     4.703000000     1.432000000     0.399000000
H     4.405000000     0.999000000    -1.020000000
O     0.579000000    -5.323000000     1.666000000
H    -0.213000000    -5.860000000     1.631000000
H     1.282000000    -5.946000000     1.852000000
O     0.209000000    -2.850000000    -5.136000000
H     0.410000000    -1.926000000    -4.986000000
H    -0.192000000    -2.871000000    -6.005000000
O    -6.749000000     0.967000000    -0.896000000
H    -6.561000000     1.028000000    -1.833000000
H    -5.970000000     0.555000000    -0.522000000
O     5.634000000     2.610000000    -3.015000000
H     4.751000000     2.942000000    -2.850000000
H     6.144000000     3.387000000    -3.241000000
O    -5.677000000    -1.330000000     0.846000000
H    -6.181000000    -1.771000000     0.162000000
H    -5.388000000    -2.037000000     1.424000000
O    -0.730000000     5.335000000     4.148000000
H    -0.096000000     5.473000000     3.443000000
H    -0.732000000     4.387000000     4.286000000
O    -0.651000000    -1.101000000     5.444000000
H    -0.721000000    -2.016000000     5.715000000
H    -1.551000000    -0.776000000     5.461000000
O     4.773000000    -2.985000000    -2.079000000
H     4.308000000    -3.053000000    -2.913000000
H     4.120000000    -3.219000000    -1.420000000
O     2.292000000    -1.177000000     1.820000000
H     2.023000000    -0.947000000     2.709000000
H     1.543000000    -0.941000000     1.273000000
O    -5.744000000     1.266000000     1.994000000
H    -6.686000000     1.326000000     2.149000000
H    -5.626000000     0.422000000     1.560000000
O     1.202000000     5.324000000     2.387000000
H     1.556000000     6.199000000     2.546000000
H     1.300000000     5.194000000     1.444000000
O     3.437000000    -3.145000000     0.446000000
H     4.309000000    -2.869000000     0.731000000
H     2.836000000    -2.604000000     0.958000000
O     4.828000000     0.070000000    -4.146000000
H     3.930000000    -0.082000000    -3.853000000
H     5.024000000     0.964000000    -3.863000000
O     1.149000000    -4.333000000    -0.809000000
H     0.864000000    -4.376000000     0.104000000
H     1.944000000    -3.801000000    -0.787000000
O     8.135000000     1.073000000    -3.178000000
H     8.192000000     1.380000000    -4.083000000
H     7.222000000     1.221000000    -2.932000000
O    -2.104000000     1.196000000     6.791000000
H    -2.789000000     1.095000000     6.129000000
H    -2.359000000     0.597000000     7.492000000
O     3.387000000     2.169000000     1.854000000
H     3.130000000     2.698000000     2.610000000
H     2.867000000     1.369000000     1.934000000
O     3.087000000     2.019000000    -7.488000000
H     3.745000000     2.678000000    -7.707000000
H     2.792000000     2.258000000    -6.609000000
O     2.622000000    -5.488000000    -4.070000000
H     2.635000000    -4.635000000    -3.635000000
H     2.981000000    -6.093000000    -3.421000000
O     0.993000000    -0.107000000    -5.209000000
H     1.357000000    -0.296000000    -4.344000000
H     1.521000000     0.621000000    -5.537000000
O     2.763000000     3.658000000     3.982000000
H     2.205000000     4.364000000     3.654000000
H     2.210000000     3.186000000     4.605000000
O     2.754000000    -3.632000000    -6.709000000
H     1.973000000    -3.711000000    -7.257000000
H     2.428000000    -3.718000000    -5.813000000
O    -2.629000000     0.048000000    -2.293000000
H    -2.442000000    -0.527000000    -1.551000000
H    -3.101000000    -0.507000000    -2.913000000
O     4.302000000     5.702000000    -3.982000000
H     4.723000000     6.226000000    -3.300000000
H     3.683000000     5.146000000    -3.510000000
O    -5.019000000    -3.939000000    -1.627000000
H    -5.499000000    -3.556000000    -2.362000000
H    -4.103000000    -3.729000000    -1.805000000
O    -2.343000000    -3.642000000    -2.142000000
H    -2.618000000    -3.146000000    -2.914000000
H    -1.688000000    -4.256000000    -2.473000000
O     5.397000000     4.670000000    -0.492000000
H     6.095000000     4.660000000    -1.147000000
H     4.589000000     4.627000000    -1.003000000
O    -4.378000000     2.989000000     0.414000000
H    -3.723000000     3.515000000     0.872000000
H    -4.849000000     2.532000000     1.111000000
O    -1.186000000     1.394000000    -4.633000000
H    -0.435000000     0.872000000    -4.914000000
H    -1.560000000     0.902000000    -3.902000000
