161
-3059.73244
C     1.325000000    -0.593000000     0.178000000
H     2.235000000    -1.106000000     0.479000000
C     0.732000000     0.141000000     1.174000000
H     1.207000000     0.305000000     2.138000000
C    -0.492000000     0.698000000     0.865000000
C    -1.293000000     1.506000000     1.886000000
H    -0.892000000     2.515000000     2.007000000
H    -2.289000000     1.725000000     1.496000000
H    -1.385000000     0.966000000     2.830000000
C    -1.082000000     0.558000000    -0.444000000
H    -2.051000000     0.988000000    -0.679000000
C    -0.441000000    -0.244000000    -1.425000000
H    -0.954000000    -0.381000000    -2.373000000
C     0.774000000    -0.874000000    -1.104000000
C     1.366000000    -1.809000000    -2.079000000
O     0.731000000    -2.212000000    -3.034000000
O     2.502000000    -2.187000000    -1.917000000
O     3.173000000     1.907000000     2.575000000
H     3.239000000     1.089000000     3.068000000
H     2.602000000     2.462000000     3.106000000
O    -3.594000000     1.882000000     5.484000000
H    -3.421000000     2.816000000     5.602000000
H    -2.786000000     1.452000000     5.763000000
O     2.559000000    -0.857000000     3.881000000
H     2.753000000    -1.794000000     3.920000000
H     2.995000000    -0.490000000     4.650000000
O    -0.254000000    -1.783000000     3.779000000
H     0.599000000    -1.718000000     3.349000000
H    -0.883000000    -1.536000000     3.101000000
O    -4.067000000    -1.640000000     4.752000000
H    -4.696000000    -1.521000000     5.463000000
H    -3.639000000    -2.474000000     4.948000000
O     4.495000000    -3.394000000    -3.130000000
H     3.768000000    -2.837000000    -2.853000000
H     4.703000000    -3.919000000    -2.357000000
O    -5.262000000     0.668000000     3.368000000
H    -4.955000000     1.260000000     4.055000000
H    -4.839000000    -0.168000000     3.565000000
O    -0.776000000    -3.904000000     0.169000000
H    -1.434000000    -4.232000000    -0.444000000
H     0.058000000    -4.036000000    -0.282000000
O    -3.218000000    -2.198000000    -2.462000000
H    -2.892000000    -3.065000000    -2.221000000
H    -3.537000000    -1.826000000    -1.640000000
O     2.344000000    -2.722000000    -5.347000000
H     3.252000000    -2.920000000    -5.119000000
H     1.897000000    -2.644000000    -4.504000000
O    -5.602000000     1.477000000     0.904000000
H    -5.484000000     1.203000000     1.814000000
H    -5.866000000     0.679000000     0.446000000
O    -1.993000000     5.344000000    -2.244000000
H    -1.604000000     4.533000000    -2.571000000
H    -2.908000000     5.120000000    -2.074000000
O    -1.074000000    -4.159000000    -3.436000000
H    -0.341000000    -3.595000000    -3.189000000
H    -0.747000000    -5.049000000    -3.303000000
O     4.160000000    -3.558000000     1.615000000
H     3.417000000    -3.411000000     2.200000000
H     4.910000000    -3.654000000     2.201000000
O    -5.173000000    -2.497000000     2.180000000
H    -5.499000000    -2.922000000     2.973000000
H    -4.299000000    -2.185000000     2.417000000
O    -0.969000000     1.993000000     7.536000000
H    -1.121000000     1.229000000     6.980000000
H    -1.065000000     1.662000000     8.429000000
O     5.195000000    -4.806000000    -0.724000000
H     4.790000000    -5.639000000    -0.481000000
H     5.109000000    -4.262000000     0.059000000
O    -1.648000000    -2.134000000    -4.968000000
H    -0.795000000    -1.700000000    -4.937000000
H    -1.714000000    -2.593000000    -4.131000000
O    -4.048000000     1.884000000    -2.013000000
H    -4.585000000     1.316000000    -1.460000000
H    -4.023000000     1.437000000    -2.860000000
O     1.585000000    -6.866000000    -0.622000000
H     1.069000000    -6.973000000    -1.421000000
H     1.589000000    -5.921000000    -0.464000000
O    -1.021000000     3.572000000    -5.218000000
H    -1.302000000     2.745000000    -5.611000000
H    -0.934000000     3.376000000    -4.285000000
O    -4.296000000     4.096000000     1.022000000
H    -3.889000000     4.093000000     1.888000000
H    -4.417000000     3.170000000     0.810000000
O     0.430000000     5.925000000     2.944000000
H    -0.103000000     6.533000000     3.456000000
H     0.671000000     6.420000000     2.160000000
O     1.982000000     1.992000000    -3.027000000
H     2.222000000     2.863000000    -3.344000000
H     2.536000000     1.856000000    -2.259000000
O     4.286000000    -0.387000000    -1.219000000
H     3.498000000    -0.865000000    -1.477000000
H     4.011000000     0.139000000    -0.468000000
O     0.157000000    -6.435000000    -3.107000000
H    -0.381000000    -7.169000000    -2.810000000
H     0.582000000    -6.755000000    -3.903000000
O    -0.007000000    -4.113000000    -6.054000000
H    -0.555000000    -3.665000000    -5.409000000
H     0.816000000    -3.623000000    -6.049000000
O    -5.500000000    -0.588000000    -1.047000000
H    -6.166000000    -0.378000000    -1.702000000
H    -5.600000000    -1.528000000    -0.898000000
O     5.268000000    -3.904000000    -5.795000000
H     5.321000000    -4.855000000    -5.707000000
H     5.243000000    -3.581000000    -4.894000000
O     1.781000000     3.753000000     4.048000000
H     1.196000000     4.312000000     3.536000000
H     2.339000000     4.366000000     4.528000000
O    -0.452000000     2.867000000    -2.627000000
H    -0.679000000     2.313000000    -1.881000000
H     0.476000000     2.691000000    -2.782000000
O     6.318000000    -1.663000000     0.166000000
H     5.616000000    -1.984000000     0.732000000
H     5.885000000    -1.057000000    -0.434000000
O     1.730000000     1.776000000     6.415000000
H     0.937000000     1.839000000     6.946000000
H     1.640000000     2.474000000     5.766000000
O     0.626000000     0.227000000    -4.969000000
H     0.912000000     0.362000000    -4.066000000
H     1.354000000    -0.233000000    -5.385000000
O    -2.089000000    -1.965000000     1.571000000
H    -1.616000000    -1.154000000     1.386000000
H    -1.994000000    -2.485000000     0.773000000
O    -3.153000000     4.464000000     3.692000000
H    -2.761000000     5.331000000     3.587000000
H    -2.545000000     3.993000000     4.262000000
O    -1.649000000    -0.103000000     5.979000000
H    -2.377000000    -0.592000000     5.595000000
H    -0.967000000    -0.124000000     5.308000000
O     2.139000000    -4.135000000    -0.123000000
H     2.982000000    -4.063000000     0.325000000
H     2.268000000    -3.672000000    -0.951000000
O     4.026000000     0.598000000     5.654000000
H     4.555000000     1.365000000     5.436000000
H     3.205000000     0.960000000     5.989000000
O     0.602000000    -5.338000000     2.217000000
H     0.314000000    -4.768000000     1.504000000
H     0.940000000    -6.119000000     1.778000000
O     3.092000000     4.579000000     0.163000000
H     2.257000000     4.743000000     0.600000000
H     3.596000000     5.381000000     0.300000000
O     5.638000000     3.090000000     1.571000000
H     6.271000000     2.600000000     1.047000000
H     5.074000000     2.419000000     1.956000000
O     3.126000000     1.951000000    -0.185000000
H     3.120000000     2.899000000    -0.050000000
H     2.850000000     1.588000000     0.657000000
O     5.952000000     1.652000000    -2.708000000
H     5.561000000     0.789000000    -2.569000000
H     6.704000000     1.485000000    -3.277000000
O    -3.691000000    -0.007000000    -4.292000000
H    -4.589000000    -0.263000000    -4.498000000
H    -3.336000000    -0.750000000    -3.804000000
O    -1.802000000     1.136000000    -5.920000000
H    -1.062000000     0.603000000    -5.631000000
H    -2.548000000     0.802000000    -5.421000000
O    -4.684000000     4.606000000    -1.805000000
H    -4.575000000     3.666000000    -1.663000000
H    -4.967000000     4.946000000    -0.957000000
O     2.369000000    -3.631000000     3.669000000
H     1.685000000    -4.200000000     3.315000000
H     2.940000000    -4.221000000     4.161000000
