161
-3037.37439
C     1.063000000    -0.995000000    -0.302000000
H     1.905000000    -1.652000000    -0.508000000
C     0.853000000    -0.374000000     0.921000000
H     1.533000000    -0.540000000     1.753000000
C    -0.176000000     0.530000000     1.064000000
C    -0.373000000     1.167000000     2.461000000
H     0.596000000     1.552000000     2.783000000
H    -1.019000000     2.046000000     2.499000000
H    -0.879000000     0.447000000     3.109000000
C    -1.047000000     0.843000000     0.017000000
H    -1.808000000     1.612000000     0.127000000
C    -0.798000000     0.254000000    -1.203000000
H    -1.496000000     0.448000000    -2.014000000
C     0.250000000    -0.648000000    -1.423000000
C     0.410000000    -1.389000000    -2.752000000
O    -0.414000000    -1.198000000    -3.618000000
O     1.399000000    -2.110000000    -2.914000000
O     2.983000000     2.815000000     2.962000000
H     2.077000000     2.961000000     3.233000000
H     3.461000000     3.568000000     3.309000000
O     2.186000000    -5.970000000    -6.054000000
H     2.588000000    -5.192000000    -5.668000000
H     1.309000000    -5.685000000    -6.309000000
O    -1.963000000    -0.634000000     6.037000000
H    -2.160000000    -1.370000000     6.617000000
H    -2.782000000    -0.473000000     5.568000000
O    -1.411000000     4.939000000    -3.245000000
H    -1.478000000     4.846000000    -2.295000000
H    -1.244000000     5.871000000    -3.383000000
O     0.999000000    -3.224000000    -5.340000000
H     0.475000000    -2.587000000    -5.826000000
H     1.131000000    -2.821000000    -4.482000000
O     1.776000000    -3.647000000     2.966000000
H     2.695000000    -3.806000000     3.182000000
H     1.498000000    -2.971000000     3.584000000
O    -1.178000000     5.419000000    -0.436000000
H    -1.849000000     4.743000000    -0.340000000
H    -1.671000000     6.233000000    -0.536000000
O    -0.572000000    -1.377000000    -6.228000000
H    -0.217000000    -0.543000000    -6.536000000
H    -0.525000000    -1.320000000    -5.274000000
O     1.201000000     2.656000000    -1.435000000
H     1.121000000     3.259000000    -0.695000000
H     1.250000000     1.789000000    -1.032000000
O     2.061000000    -4.131000000    -1.313000000
H     1.820000000    -4.967000000    -1.712000000
H     1.929000000    -3.487000000    -2.010000000
O    -3.832000000    -1.052000000     4.023000000
H    -3.720000000    -0.482000000     3.262000000
H    -4.033000000    -1.911000000     3.651000000
O     1.067000000     4.067000000     4.737000000
H     0.601000000     4.515000000     4.032000000
H     1.260000000     4.756000000     5.373000000
O    -2.594000000    -2.801000000    -3.733000000
H    -1.812000000    -2.250000000    -3.730000000
H    -2.262000000    -3.688000000    -3.870000000
O    -3.781000000    -0.269000000     1.248000000
H    -2.907000000     0.103000000     1.122000000
H    -3.904000000    -0.849000000     0.497000000
O     1.893000000    -6.447000000    -2.699000000
H     2.598000000    -6.891000000    -3.169000000
H     1.276000000    -7.145000000    -2.477000000
O    -3.664000000    -2.116000000    -0.951000000
H    -3.092000000    -2.849000000    -1.177000000
H    -3.790000000    -1.648000000    -1.776000000
O     0.223000000     0.626000000     7.704000000
H     0.973000000     1.031000000     7.268000000
H    -0.513000000     0.790000000     7.114000000
O    -3.423000000     4.646000000     3.979000000
H    -2.501000000     4.809000000     3.777000000
H    -3.889000000     4.880000000     3.176000000
O     3.701000000    -1.137000000    -3.512000000
H     4.025000000    -0.665000000    -2.744000000
H     2.837000000    -1.454000000    -3.251000000
O     7.040000000    -1.922000000    -3.124000000
H     6.472000000    -2.086000000    -3.877000000
H     6.469000000    -1.503000000    -2.480000000
O     4.067000000    -2.751000000     0.566000000
H     4.392000000    -3.117000000     1.389000000
H     3.280000000    -3.260000000     0.371000000
O     4.578000000    -4.112000000     2.940000000
H     4.844000000    -5.005000000     2.719000000
H     5.028000000    -3.926000000     3.764000000
O     1.148000000    -5.715000000     1.007000000
H     1.394000000    -5.290000000     0.186000000
H     1.123000000    -5.004000000     1.647000000
O    -2.961000000    -2.726000000    -6.632000000
H    -3.519000000    -2.422000000    -5.916000000
H    -2.083000000    -2.429000000    -6.395000000
O    -3.146000000     1.294000000    -5.181000000
H    -2.340000000     1.085000000    -4.709000000
H    -2.883000000     1.953000000    -5.824000000
O     3.092000000     3.609000000    -2.934000000
H     2.325000000     3.250000000    -2.488000000
H     2.932000000     3.437000000    -3.862000000
O    -5.372000000     1.539000000     2.967000000
H    -4.879000000     1.065000000     2.297000000
H    -5.470000000     0.910000000     3.682000000
O    -4.213000000     4.504000000     6.459000000
H    -3.876000000     4.365000000     5.574000000
H    -3.554000000     5.052000000     6.884000000
O    -0.370000000     1.527000000    -4.140000000
H    -0.182000000     1.961000000    -3.308000000
H    -0.513000000     0.610000000    -3.905000000
O     0.059000000     5.887000000     2.940000000
H    -0.222000000     6.236000000     3.786000000
H     0.080000000     6.649000000     2.361000000
O     2.243000000    -2.868000000    -7.931000000
H     2.381000000    -2.343000000    -7.142000000
H     1.908000000    -3.704000000    -7.606000000
O    -2.968000000    -3.615000000     3.304000000
H    -2.452000000    -3.895000000     4.061000000
H    -2.316000000    -3.356000000     2.653000000
O     4.432000000     0.260000000     3.377000000
H     4.131000000     1.163000000     3.279000000
H     3.905000000    -0.092000000     4.095000000
O    -0.921000000    -2.932000000     1.630000000
H    -0.209000000    -3.357000000     2.107000000
H    -0.481000000    -2.350000000     1.011000000
O     1.788000000     2.058000000     6.189000000
H     1.375000000     2.802000000     5.751000000
H     2.725000000     2.252000000     6.158000000
O    -5.856000000    -0.094000000    -2.853000000
H    -5.753000000     0.404000000    -3.664000000
H    -5.732000000    -1.007000000    -3.115000000
O    -2.290000000    -4.339000000    -1.169000000
H    -1.783000000    -4.149000000    -1.958000000
H    -2.132000000    -5.269000000    -1.002000000
O    -0.839000000    -4.776000000    -3.954000000
H    -0.112000000    -4.352000000    -4.410000000
H    -0.719000000    -5.709000000    -4.130000000
O     3.203000000    -1.315000000     5.285000000
H     3.271000000    -2.041000000     5.905000000
H     2.276000000    -1.079000000     5.294000000
O    -0.409000000     3.961000000    -5.474000000
H    -0.645000000     3.127000000    -5.069000000
H    -0.762000000     4.624000000    -4.882000000
O    -3.656000000     4.071000000    -0.086000000
H    -4.005000000     4.552000000     0.664000000
H    -4.424000000     3.660000000    -0.485000000
O     1.559000000     5.295000000     0.477000000
H     1.489000000     5.482000000     1.413000000
H     0.653000000     5.205000000     0.182000000
O     4.946000000    -0.620000000    -1.119000000
H     5.585000000    -0.141000000    -0.592000000
H     4.664000000    -1.342000000    -0.557000000
O    -5.643000000     2.234000000    -1.112000000
H    -5.941000000     1.903000000    -0.265000000
H    -5.607000000     1.458000000    -1.672000000
O     2.963000000    -0.673000000    -6.312000000
H     3.221000000     0.234000000    -6.146000000
H     2.857000000    -1.055000000    -5.441000000
O     4.960000000     1.739000000     0.864000000
H     4.056000000     1.710000000     0.550000000
H     4.900000000     1.497000000     1.788000000
O     5.401000000    -2.374000000    -5.224000000
H     5.142000000    -2.045000000    -6.084000000
H     4.909000000    -1.836000000    -4.604000000
O     0.506000000    -1.906000000     4.967000000
H    -0.300000000    -1.395000000     4.905000000
H     0.560000000    -2.158000000     5.889000000
