161
-3083.88614
C     0.248000000    -0.267000000    -1.491000000
H     0.528000000    -0.392000000    -2.534000000
C     0.559000000     0.881000000    -0.770000000
H     1.116000000     1.689000000    -1.236000000
C     0.254000000     1.090000000     0.576000000
C     0.638000000     2.304000000     1.386000000
H    -0.215000000     2.845000000     1.801000000
H     1.236000000     1.980000000     2.241000000
H     1.342000000     2.937000000     0.842000000
C    -0.446000000    -0.005000000     1.229000000
H    -0.550000000     0.020000000     2.311000000
C    -0.733000000    -1.178000000     0.548000000
H    -1.187000000    -1.937000000     1.180000000
C    -0.404000000    -1.327000000    -0.823000000
C    -0.724000000    -2.559000000    -1.546000000
O    -1.621000000    -3.248000000    -1.131000000
O    -0.039000000    -2.831000000    -2.578000000
O    -3.308000000    -0.610000000     5.659000000
H    -3.186000000    -1.239000000     4.948000000
H    -3.776000000     0.121000000     5.256000000
O     4.000000000     0.774000000    -2.668000000
H     3.468000000     0.103000000    -3.096000000
H     4.566000000     0.285000000    -2.070000000
O    -0.262000000     5.954000000     3.219000000
H     0.185000000     5.234000000     3.664000000
H    -0.976000000     5.534000000     2.739000000
O    -2.799000000     0.016000000    -3.988000000
H    -1.938000000    -0.350000000    -4.188000000
H    -2.641000000     0.953000000    -3.873000000
O     6.441000000     1.961000000    -1.110000000
H     6.139000000     1.259000000    -0.533000000
H     5.652000000     2.467000000    -1.304000000
O     2.872000000    -2.430000000    -2.150000000
H     2.575000000    -1.917000000    -1.397000000
H     2.130000000    -2.995000000    -2.363000000
O     2.646000000    -1.131000000     0.504000000
H     2.045000000    -1.435000000     1.185000000
H     2.281000000    -0.294000000     0.218000000
O    -0.372000000     1.133000000     6.058000000
H    -1.229000000     1.077000000     5.635000000
H    -0.467000000     1.835000000     6.701000000
O    -5.625000000    -2.873000000    -3.306000000
H    -5.006000000    -2.475000000    -2.694000000
H    -6.474000000    -2.507000000    -3.060000000
O     1.324000000     7.091000000     1.029000000
H     1.240000000     6.488000000     0.291000000
H     0.763000000     6.717000000     1.709000000
O     3.307000000    -3.844000000    -5.627000000
H     2.749000000    -4.497000000    -5.203000000
H     3.638000000    -4.284000000    -6.410000000
O     1.305000000    -0.485000000     4.095000000
H     0.629000000    -0.089000000     4.645000000
H     1.966000000     0.200000000     3.997000000
O     0.041000000    -5.226000000    -3.385000000
H     0.045000000    -4.364000000    -2.970000000
H    -0.628000000    -5.161000000    -4.066000000
O    -3.682000000     3.709000000    -0.356000000
H    -4.313000000     4.393000000    -0.583000000
H    -4.196000000     2.902000000    -0.349000000
O    -5.340000000    -4.773000000    -0.452000000
H    -6.238000000    -4.620000000    -0.745000000
H    -4.974000000    -5.371000000    -1.104000000
O    -2.117000000     3.944000000     6.348000000
H    -2.827000000     3.831000000     6.980000000
H    -2.521000000     3.764000000     5.499000000
O    -0.566000000    -1.470000000    -4.855000000
H    -0.206000000    -2.033000000    -4.170000000
H    -1.145000000    -2.043000000    -5.357000000
O     3.280000000     1.627000000     4.324000000
H     3.604000000     1.331000000     5.175000000
H     3.486000000     2.561000000     4.301000000
O    -0.131000000     3.499000000    -3.356000000
H    -0.766000000     2.988000000    -2.853000000
H    -0.657000000     3.950000000    -4.017000000
O     3.650000000     4.794000000     1.533000000
H     4.284000000     5.341000000     1.067000000
H     2.916000000     5.380000000     1.713000000
O    -1.058000000    -4.122000000     3.072000000
H    -1.286000000    -4.929000000     2.611000000
H    -0.982000000    -4.383000000     3.990000000
O     5.559000000     1.748000000    -4.543000000
H     6.146000000     2.172000000    -3.917000000
H     4.817000000     1.455000000    -4.014000000
O    -3.587000000     4.075000000     3.886000000
H    -3.194000000     4.267000000     3.035000000
H    -4.168000000     4.817000000     4.055000000
O     4.450000000     2.068000000     1.137000000
H     4.553000000     1.447000000     1.858000000
H     4.171000000     2.880000000     1.559000000
O    -2.678000000    -4.437000000    -3.681000000
H    -3.587000000    -4.729000000    -3.611000000
H    -2.449000000    -4.151000000    -2.797000000
O    -3.298000000    -3.292000000     0.782000000
H    -2.457000000    -3.327000000     0.326000000
H    -3.850000000    -3.918000000     0.314000000
O     2.523000000     3.880000000    -3.912000000
H     2.735000000     3.746000000    -2.988000000
H     1.645000000     3.513000000    -4.013000000
O     1.229000000    -2.812000000     2.533000000
H     0.518000000    -3.367000000     2.854000000
H     1.066000000    -1.958000000     2.935000000
O    -2.414000000     5.153000000     1.660000000
H    -2.403000000     6.103000000     1.545000000
H    -2.484000000     4.804000000     0.771000000
O     3.103000000    -1.086000000    -4.762000000
H     3.445000000    -1.034000000    -5.655000000
H     3.117000000    -2.020000000    -4.553000000
O     1.118000000     5.396000000    -1.076000000
H     1.801000000     5.814000000    -1.601000000
H     0.645000000     4.841000000    -1.696000000
O     1.631000000    -6.405000000    -5.582000000
H     1.911000000    -7.204000000    -5.136000000
H     0.997000000    -6.007000000    -4.985000000
O     1.361000000    -4.659000000     0.425000000
H     1.491000000    -4.335000000     1.317000000
H     0.412000000    -4.654000000     0.304000000
O    -2.198000000    -6.544000000     2.147000000
H    -2.105000000    -6.404000000     1.205000000
H    -3.041000000    -6.148000000     2.366000000
O     5.216000000    -0.503000000    -0.110000000
H     4.347000000    -0.440000000     0.285000000
H     5.462000000    -1.422000000    -0.004000000
O    -5.992000000    -0.842000000     0.972000000
H    -5.516000000    -1.403000000     0.360000000
H    -6.815000000    -1.305000000     1.132000000
O    -3.597000000    -2.336000000    -5.427000000
H    -3.563000000    -2.948000000    -4.692000000
H    -3.509000000    -1.472000000    -5.024000000
O     0.613000000    -1.913000000    -7.589000000
H     0.176000000    -1.613000000    -6.793000000
H     1.244000000    -1.222000000    -7.792000000
O    -1.421000000    -5.917000000    -0.385000000
H    -1.196000000    -6.371000000    -1.197000000
H    -1.483000000    -4.995000000    -0.635000000
O     3.432000000     4.344000000     5.015000000
H     3.852000000     4.536000000     5.853000000
H     3.442000000     5.178000000     4.545000000
O     2.324000000    -5.976000000    -1.733000000
H     1.969000000    -5.495000000    -0.986000000
H     1.673000000    -5.858000000    -2.425000000
O     1.068000000     0.919000000    -5.460000000
H     1.868000000     0.540000000    -5.096000000
H     0.365000000     0.364000000    -5.125000000
O    -1.911000000     2.128000000    -2.032000000
H    -1.486000000     1.514000000    -1.433000000
H    -2.397000000     2.723000000    -1.461000000
O    -3.883000000    -1.610000000     2.910000000
H    -3.511000000    -2.296000000     2.356000000
H    -4.620000000    -1.267000000     2.405000000
O    -4.047000000    -1.624000000    -1.455000000
H    -3.401000000    -1.131000000    -1.962000000
H    -3.538000000    -2.304000000    -1.015000000
O    -4.995000000    -2.942000000     4.915000000
H    -4.551000000    -2.474000000     4.208000000
H    -5.645000000    -2.321000000     5.242000000
O     3.694000000     3.196000000    -1.587000000
H     3.688000000     3.182000000    -0.630000000
H     3.821000000     2.281000000    -1.838000000
O    -3.698000000    -7.514000000    -0.860000000
H    -3.006000000    -6.860000000    -0.764000000
H    -3.419000000    -8.050000000    -1.602000000
