161
-3039.08815
C     1.114000000     0.382000000     0.889000000
H     1.854000000     0.836000000     1.544000000
C    -0.231000000     0.404000000     1.279000000
H    -0.563000000     0.956000000     2.154000000
C    -1.162000000    -0.224000000     0.449000000
C    -2.663000000    -0.171000000     0.681000000
H    -3.034000000     0.018000000     1.690000000
H    -3.129000000     0.571000000     0.029000000
H    -3.093000000    -1.067000000     0.228000000
C    -0.731000000    -0.623000000    -0.782000000
H    -1.509000000    -0.934000000    -1.474000000
C     0.555000000    -0.363000000    -1.275000000
H     0.881000000    -0.394000000    -2.311000000
C     1.572000000     0.069000000    -0.412000000
C     3.008000000     0.181000000    -0.824000000
O     3.304000000     0.108000000    -1.947000000
O     3.821000000     0.245000000     0.078000000
O     5.664000000    -4.101000000     0.469000000
H     4.911000000    -3.572000000     0.732000000
H     5.780000000    -3.906000000    -0.461000000
O     4.002000000     2.918000000    -2.340000000
H     3.765000000     1.991000000    -2.314000000
H     4.181000000     3.145000000    -1.428000000
O     3.023000000    -2.369000000    -3.257000000
H     2.921000000    -2.117000000    -4.175000000
H     3.267000000    -1.557000000    -2.812000000
O    -5.518000000    -2.535000000    -0.391000000
H    -4.682000000    -2.739000000    -0.810000000
H    -5.402000000    -2.802000000     0.520000000
O    -3.780000000     1.956000000     4.726000000
H    -3.670000000     2.110000000     5.664000000
H    -3.212000000     1.209000000     4.537000000
O    -4.740000000    -1.154000000     3.741000000
H    -5.121000000    -0.312000000     3.491000000
H    -3.813000000    -1.073000000     3.516000000
O    -1.672000000    -5.143000000    -1.127000000
H    -1.048000000    -4.659000000    -0.586000000
H    -1.863000000    -5.935000000    -0.625000000
O     2.538000000     2.845000000     3.383000000
H     1.668000000     2.825000000     3.782000000
H     2.955000000     3.621000000     3.756000000
O     7.957000000     1.107000000    -1.621000000
H     8.172000000     1.267000000    -2.540000000
H     7.282000000     0.430000000    -1.647000000
O     4.360000000     3.038000000     0.428000000
H     4.454000000     2.086000000     0.397000000
H     4.644000000     3.278000000     1.310000000
O    -1.374000000     1.877000000    -4.930000000
H    -1.955000000     2.633000000    -5.018000000
H    -1.206000000     1.813000000    -3.990000000
O    -0.428000000    -2.109000000     3.265000000
H     0.529000000    -2.126000000     3.308000000
H    -0.636000000    -2.510000000     2.421000000
O     1.236000000     1.717000000    -6.293000000
H     0.378000000     1.958000000    -5.943000000
H     1.050000000     1.374000000    -7.168000000
O     1.252000000    -4.690000000     2.980000000
H     1.177000000    -4.008000000     2.312000000
H     1.894000000    -4.347000000     3.602000000
O    -3.101000000     0.062000000    -5.993000000
H    -3.109000000    -0.579000000    -5.282000000
H    -2.309000000     0.578000000    -5.842000000
O     2.306000000    -2.101000000     3.722000000
H     2.358000000    -2.593000000     4.542000000
H     2.776000000    -1.286000000     3.902000000
O     5.322000000    -3.335000000    -2.148000000
H     4.436000000    -3.111000000    -2.433000000
H     5.689000000    -3.833000000    -2.878000000
O     6.118000000    -0.797000000    -1.534000000
H     5.245000000    -0.412000000    -1.619000000
H     5.998000000    -1.717000000    -1.771000000
O     1.088000000    -0.809000000    -4.889000000
H     0.951000000    -1.425000000    -5.609000000
H     1.162000000     0.045000000    -5.316000000
O    -3.163000000    -3.015000000    -1.959000000
H    -2.717000000    -2.698000000    -2.744000000
H    -2.738000000    -3.850000000    -1.763000000
O     3.966000000    -1.730000000    -5.901000000
H     4.860000000    -2.059000000    -5.994000000
H     4.050000000    -0.967000000    -5.329000000
O    -3.386000000     3.550000000    -0.393000000
H    -3.037000000     3.232000000     0.439000000
H    -3.991000000     4.251000000    -0.147000000
O     6.217000000     3.051000000    -4.251000000
H     6.913000000     3.670000000    -4.029000000
H     5.541000000     3.205000000    -3.592000000
O    -1.674000000    -1.818000000    -4.182000000
H    -1.229000000    -1.237000000    -3.566000000
H    -0.998000000    -2.060000000    -4.815000000
O     0.023000000    -3.086000000     0.861000000
H    -0.150000000    -2.286000000     0.364000000
H     0.625000000    -3.585000000     0.310000000
O    -7.407000000    -2.228000000     3.196000000
H    -7.701000000    -1.599000000     2.537000000
H    -6.506000000    -1.970000000     3.388000000
O    -1.100000000     2.234000000    -2.038000000
H    -1.688000000     2.684000000    -1.430000000
H    -0.905000000     1.401000000    -1.609000000
O     4.479000000     0.379000000    -4.285000000
H     4.147000000     0.285000000    -3.392000000
H     5.283000000     0.889000000    -4.188000000
O    -2.004000000     0.097000000     4.628000000
H    -1.377000000    -0.408000000     4.109000000
H    -1.954000000    -0.287000000     5.503000000
O     3.909000000     0.077000000     3.879000000
H     4.111000000     0.476000000     3.033000000
H     3.438000000     0.758000000     4.359000000
O     7.608000000     2.015000000     2.442000000
H     7.043000000     1.246000000     2.367000000
H     7.842000000     2.051000000     3.369000000
O    -2.979000000     3.835000000    -3.829000000
H    -2.582000000     4.600000000    -3.413000000
H    -3.156000000     3.233000000    -3.106000000
O     0.172000000    -4.905000000    -3.246000000
H    -0.459000000    -5.125000000    -2.560000000
H     0.961000000    -4.645000000    -2.770000000
O    -6.681000000     2.278000000    -2.453000000
H    -7.489000000     1.767000000    -2.408000000
H    -6.302000000     2.204000000    -1.577000000
O     4.087000000    -2.111000000     1.280000000
H     3.603000000    -2.073000000     2.105000000
H     4.029000000    -1.223000000     0.927000000
O    -4.571000000    -3.768000000     2.347000000
H    -4.133000000    -4.540000000     2.703000000
H    -4.270000000    -3.046000000     2.899000000
O     6.225000000    -0.146000000     1.914000000
H     5.895000000    -1.044000000     1.910000000
H     5.801000000     0.268000000     1.161000000
O     0.916000000     4.162000000    -1.738000000
H     0.337000000     3.420000000    -1.915000000
H     1.520000000     4.177000000    -2.480000000
O     0.076000000     3.976000000     1.063000000
H    -0.343000000     3.147000000     1.295000000
H     0.929000000     3.722000000     0.710000000
O    -8.221000000    -2.480000000    -1.215000000
H    -8.443000000    -3.265000000    -1.715000000
H    -7.285000000    -2.567000000    -1.036000000
O    -2.896000000     3.117000000     2.110000000
H    -3.372000000     2.575000000     2.739000000
H    -3.056000000     4.016000000     2.398000000
O    -5.673000000     1.387000000     2.865000000
H    -5.151000000     1.937000000     3.451000000
H    -6.285000000     1.994000000     2.450000000
O     2.299000000     4.080000000    -4.183000000
H     2.851000000     4.083000000    -4.965000000
H     2.775000000     3.536000000    -3.556000000
O    -0.270000000     5.664000000     3.466000000
H    -0.051000000     5.325000000     2.598000000
H     0.386000000     6.341000000     3.632000000
O    -8.241000000     0.152000000     1.471000000
H    -7.519000000     0.102000000     0.844000000
H    -8.515000000     1.069000000     1.448000000
O    -4.468000000    -2.834000000    -5.006000000
H    -4.926000000    -3.346000000    -4.340000000
H    -3.726000000    -2.446000000    -4.543000000
O     0.404000000     1.971000000     5.232000000
H     0.207000000     2.609000000     5.918000000
H    -0.451000000     1.640000000     4.959000000
O    -5.751000000     0.312000000    -0.047000000
H    -4.971000000     0.320000000     0.507000000
H    -5.719000000    -0.535000000    -0.493000000
