161
-3038.08905
C     1.258000000    -0.370000000    -0.614000000
H     2.260000000    -0.501000000    -1.012000000
C     1.032000000     0.767000000     0.256000000
H     1.859000000     1.439000000     0.468000000
C    -0.242000000     0.971000000     0.745000000
C    -0.502000000     2.287000000     1.416000000
H    -1.371000000     2.077000000     2.043000000
H     0.226000000     2.525000000     2.194000000
H    -0.626000000     3.188000000     0.811000000
C    -1.275000000     0.101000000     0.364000000
H    -2.250000000     0.331000000     0.786000000
C    -1.018000000    -1.040000000    -0.414000000
H    -1.752000000    -1.818000000    -0.608000000
C     0.280000000    -1.336000000    -0.817000000
C     0.619000000    -2.565000000    -1.629000000
O    -0.103000000    -3.539000000    -1.682000000
O     1.602000000    -2.519000000    -2.300000000
O     1.335000000    -2.435000000     2.345000000
H     0.900000000    -1.713000000     1.891000000
H     1.343000000    -2.170000000     3.264000000
O    -2.964000000     3.200000000     4.391000000
H    -3.174000000     2.270000000     4.468000000
H    -3.204000000     3.426000000     3.492000000
O    -2.487000000    -0.294000000    -4.395000000
H    -2.410000000     0.248000000    -3.610000000
H    -3.102000000    -0.985000000    -4.149000000
O     3.866000000    -1.371000000    -2.974000000
H     3.583000000    -0.666000000    -3.556000000
H     3.051000000    -1.768000000    -2.666000000
O     6.693000000    -1.566000000    -3.224000000
H     7.138000000    -1.536000000    -4.071000000
H     5.782000000    -1.768000000    -3.439000000
O     5.534000000     0.856000000    -1.860000000
H     6.033000000     0.040000000    -1.899000000
H     4.672000000     0.625000000    -2.206000000
O    -2.881000000    -4.841000000     2.034000000
H    -1.938000000    -4.699000000     1.952000000
H    -2.959000000    -5.620000000     2.584000000
O     3.256000000     4.136000000     2.685000000
H     3.877000000     4.733000000     3.103000000
H     2.398000000     4.430000000     2.991000000
O    -6.515000000     0.446000000    -0.095000000
H    -5.639000000     0.343000000     0.275000000
H    -7.058000000     0.717000000     0.645000000
O     4.959000000    -2.512000000     0.155000000
H     4.300000000    -1.826000000     0.266000000
H     5.566000000    -2.380000000     0.883000000
O     0.255000000     5.297000000    -3.279000000
H     0.644000000     4.850000000    -4.030000000
H    -0.571000000     4.838000000    -3.129000000
O     5.101000000    -1.836000000    -5.607000000
H     4.375000000    -2.070000000    -5.029000000
H     4.689000000    -1.358000000    -6.327000000
O     5.037000000     2.115000000     3.600000000
H     4.462000000     2.552000000     2.971000000
H     4.476000000     1.941000000     4.356000000
O     2.242000000    -3.879000000    -4.661000000
H     1.797000000    -3.325000000    -4.020000000
H     1.801000000    -3.688000000    -5.490000000
O    -1.963000000     3.836000000    -2.274000000
H    -2.785000000     3.826000000    -2.766000000
H    -2.196000000     4.215000000    -1.427000000
O     3.026000000     0.852000000    -4.122000000
H     2.855000000     1.153000000    -5.014000000
H     2.712000000     1.565000000    -3.565000000
O    -2.541000000     4.405000000     6.700000000
H    -2.606000000     3.994000000     5.838000000
H    -1.805000000     3.961000000     7.121000000
O     1.680000000     2.530000000    -2.223000000
H     1.298000000     3.281000000    -1.768000000
H     1.059000000     1.817000000    -2.071000000
O    -2.465000000     5.306000000     0.058000000
H    -1.511000000     5.260000000    -0.014000000
H    -2.703000000     6.096000000    -0.427000000
O     4.794000000     2.394000000     0.529000000
H     5.653000000     2.809000000     0.610000000
H     4.853000000     1.876000000    -0.273000000
O     0.851000000    -5.690000000    -3.300000000
H     0.458000000    -5.009000000    -2.754000000
H     1.298000000    -5.210000000    -3.997000000
O    -0.929000000    -0.689000000     3.691000000
H    -1.359000000    -1.531000000     3.844000000
H    -1.613000000    -0.039000000     3.850000000
O     3.889000000     0.055000000     1.741000000
H     3.187000000     0.307000000     2.342000000
H     3.924000000     0.767000000     1.103000000
O    -0.309000000     6.107000000     1.581000000
H     0.281000000     6.849000000     1.450000000
H    -1.112000000     6.498000000     1.925000000
O     4.338000000     3.487000000    -2.080000000
H     4.877000000     2.710000000    -1.931000000
H     3.438000000     3.180000000    -1.966000000
O     1.464000000     2.780000000     5.528000000
H     1.438000000     3.543000000     4.951000000
H     0.823000000     2.974000000     6.212000000
O     2.870000000    -4.710000000    -1.144000000
H     2.098000000    -5.222000000    -1.384000000
H     2.612000000    -3.801000000    -1.296000000
O     3.593000000    -4.878000000     1.454000000
H     3.386000000    -4.838000000     0.520000000
H     3.674000000    -3.962000000     1.720000000
O    -1.945000000    -5.222000000    -5.382000000
H    -2.033000000    -4.981000000    -4.460000000
H    -2.306000000    -4.475000000    -5.860000000
O    -4.197000000    -3.548000000     0.079000000
H    -4.262000000    -4.339000000    -0.457000000
H    -3.890000000    -3.860000000     0.930000000
O     1.628000000     0.660000000     3.765000000
H     0.711000000     0.390000000     3.719000000
H     1.605000000     1.512000000     4.200000000
O    -3.590000000     0.851000000    -1.619000000
H    -3.799000000    -0.081000000    -1.691000000
H    -4.210000000     1.186000000    -0.972000000
O     0.430000000    -0.269000000    -5.143000000
H    -0.433000000    -0.575000000    -4.862000000
H     0.822000000     0.100000000    -4.352000000
O     0.962000000     4.962000000     3.891000000
H     0.634000000     5.397000000     3.105000000
H     0.704000000     5.540000000     4.610000000
O     0.762000000    -6.753000000     1.597000000
H     1.475000000    -6.666000000     2.231000000
H     0.552000000    -5.853000000     1.349000000
O    -3.974000000     3.829000000     1.942000000
H    -3.349000000     4.356000000     1.445000000
H    -4.762000000     3.817000000     1.400000000
O    -0.381000000    -4.362000000     0.747000000
H     0.101000000    -3.638000000     1.147000000
H    -0.426000000    -4.135000000    -0.182000000
O     0.939000000    -2.473000000    -6.657000000
H     0.328000000    -2.833000000    -7.300000000
H     0.434000000    -1.803000000    -6.196000000
O     4.103000000     5.386000000     0.193000000
H     4.173000000     5.070000000    -0.708000000
H     3.676000000     4.672000000     0.665000000
O     1.099000000     4.475000000    -0.287000000
H     0.716000000     4.934000000     0.461000000
H     1.475000000     5.169000000    -0.828000000
O     4.953000000    -4.477000000    -3.108000000
H     5.068000000    -4.645000000    -2.173000000
H     4.005000000    -4.415000000    -3.225000000
O    -4.415000000    -1.952000000    -2.287000000
H    -4.586000000    -2.404000000    -1.461000000
H    -5.274000000    -1.883000000    -2.705000000
O    -0.959000000     1.361000000    -2.699000000
H    -1.282000000     2.243000000    -2.513000000
H    -1.209000000     0.848000000    -1.931000000
O    -5.991000000    -1.539000000     3.653000000
H    -5.166000000    -1.507000000     3.169000000
H    -6.467000000    -2.274000000     3.267000000
O    -2.463000000    -4.158000000    -2.802000000
H    -2.976000000    -3.475000000    -2.370000000
H    -1.570000000    -4.025000000    -2.485000000
O    -3.372000000     0.487000000     4.765000000
H    -3.667000000     0.643000000     5.663000000
H    -3.453000000    -0.460000000     4.649000000
O    -4.452000000     1.183000000     1.545000000
H    -4.885000000     1.163000000     2.398000000
H    -4.041000000     2.046000000     1.504000000
O     0.947000000    -8.216000000    -2.646000000
H     1.769000000    -8.463000000    -3.070000000
H     0.893000000    -7.268000000    -2.762000000
