161
-3035.01336
C     1.006000000    -0.638000000    -0.921000000
H     1.696000000    -0.894000000    -1.722000000
C     1.172000000     0.606000000    -0.263000000
H     1.951000000     1.302000000    -0.564000000
C     0.146000000     1.062000000     0.515000000
C     0.124000000     2.494000000     1.089000000
H     0.233000000     2.525000000     2.175000000
H     0.966000000     3.044000000     0.664000000
H    -0.826000000     2.957000000     0.813000000
C    -0.962000000     0.277000000     0.884000000
H    -1.710000000     0.558000000     1.620000000
C    -1.046000000    -0.978000000     0.243000000
H    -1.869000000    -1.651000000     0.468000000
C    -0.150000000    -1.370000000    -0.715000000
C    -0.237000000    -2.732000000    -1.288000000
O    -1.290000000    -3.267000000    -1.355000000
O     0.788000000    -3.291000000    -1.650000000
O     1.629000000     6.520000000     1.982000000
H     1.253000000     7.400000000     1.954000000
H     0.876000000     5.935000000     1.893000000
O     4.593000000     0.957000000    -3.529000000
H     5.511000000     0.726000000    -3.666000000
H     4.623000000     1.810000000    -3.095000000
O     1.444000000     3.431000000    -2.919000000
H     2.057000000     3.194000000    -2.223000000
H     1.563000000     2.753000000    -3.584000000
O    -2.494000000    -5.417000000    -4.832000000
H    -2.508000000    -6.047000000    -4.113000000
H    -1.608000000    -5.481000000    -5.189000000
O     0.370000000     6.348000000     5.380000000
H     0.479000000     6.412000000     6.329000000
H    -0.031000000     5.490000000     5.242000000
O     6.267000000     0.389000000    -0.309000000
H     5.704000000     0.910000000     0.264000000
H     5.722000000    -0.353000000    -0.571000000
O     3.245000000    -3.685000000    -2.754000000
H     3.708000000    -4.336000000    -2.226000000
H     2.404000000    -3.571000000    -2.311000000
O     2.980000000    -3.746000000     0.522000000
H     3.005000000    -3.020000000     1.146000000
H     2.083000000    -3.745000000     0.189000000
O     3.299000000    -1.911000000     2.565000000
H     3.630000000    -2.352000000     3.348000000
H     3.184000000    -0.999000000     2.835000000
O     0.075000000    -0.390000000     3.822000000
H     0.513000000     0.437000000     4.027000000
H    -0.086000000    -0.348000000     2.879000000
O    -6.183000000    -0.982000000    -3.117000000
H    -5.327000000    -0.954000000    -2.690000000
H    -6.065000000    -1.581000000    -3.853000000
O     3.922000000     5.214000000     2.527000000
H     3.013000000     5.505000000     2.456000000
H     4.281000000     5.334000000     1.647000000
O     2.558000000    -4.825000000    -5.619000000
H     2.443000000    -4.951000000    -4.678000000
H     2.511000000    -3.876000000    -5.742000000
O    -0.979000000     7.408000000    -0.554000000
H    -0.191000000     7.948000000    -0.500000000
H    -0.707000000     6.636000000    -1.050000000
O     0.642000000    -4.792000000     2.703000000
H     0.488000000    -3.848000000     2.667000000
H     1.548000000    -4.877000000     2.998000000
O     0.812000000    -6.041000000    -2.106000000
H     0.741000000    -5.087000000    -2.097000000
H     0.290000000    -6.313000000    -2.861000000
O    -2.914000000     2.500000000    -1.507000000
H    -2.580000000     3.316000000    -1.880000000
H    -2.947000000     2.664000000    -0.564000000
O    -0.710000000     0.684000000    -5.173000000
H     0.137000000     1.128000000    -5.216000000
H    -0.490000000    -0.247000000    -5.130000000
O    -3.451000000    -4.571000000     4.992000000
H    -3.588000000    -3.712000000     5.391000000
H    -3.292000000    -4.383000000     4.067000000
O     1.934000000     1.619000000    -5.047000000
H     2.721000000     1.094000000    -4.904000000
H     1.884000000     1.723000000    -5.997000000
O    -0.921000000     4.147000000     4.237000000
H    -0.839000000     4.678000000     3.445000000
H    -1.826000000     3.836000000     4.225000000
O     3.387000000     0.481000000     3.450000000
H     4.227000000     0.913000000     3.606000000
H     2.775000000     0.928000000     4.035000000
O    -2.697000000    -2.807000000    -4.094000000
H    -3.329000000    -2.643000000    -3.394000000
H    -2.827000000    -3.726000000    -4.325000000
O    -0.535000000    -8.210000000    -0.311000000
H    -1.325000000    -7.676000000    -0.233000000
H     0.090000000    -7.648000000    -0.768000000
O    -3.568000000    -2.280000000    -1.699000000
H    -2.677000000    -2.628000000    -1.644000000
H    -4.106000000    -2.926000000    -1.243000000
O     3.942000000     3.150000000    -1.705000000
H     4.473000000     2.965000000    -0.931000000
H     4.047000000     4.090000000    -1.850000000
O    -5.096000000    -4.249000000    -0.615000000
H    -4.948000000    -4.975000000    -1.221000000
H    -4.860000000    -4.601000000     0.243000000
O     1.945000000    -2.299000000    -6.335000000
H     1.208000000    -2.235000000    -5.728000000
H     2.647000000    -1.806000000    -5.911000000
O    -1.155000000     5.450000000     1.921000000
H    -1.779000000     6.174000000     1.972000000
H    -1.556000000     4.831000000     1.311000000
O     4.011000000    -1.036000000    -5.178000000
H     4.763000000    -1.046000000    -5.770000000
H     4.073000000    -0.195000000    -4.725000000
O    -0.440000000     5.358000000    -2.075000000
H    -0.918000000     5.403000000    -2.903000000
H     0.373000000     4.902000000    -2.292000000
O     0.897000000     2.076000000     4.625000000
H     0.945000000     1.967000000     5.575000000
H     0.288000000     2.803000000     4.497000000
O    -1.909000000    -5.211000000     1.897000000
H    -2.319000000    -4.491000000     2.376000000
H    -0.999000000    -5.210000000     2.195000000
O    -3.463000000     3.899000000     1.158000000
H    -4.392000000     3.670000000     1.171000000
H    -3.432000000     4.792000000     1.502000000
O    -2.985000000    -2.595000000     2.712000000
H    -2.538000000    -1.854000000     3.121000000
H    -3.785000000    -2.219000000     2.345000000
O     5.009000000    -1.703000000    -2.449000000
H     4.480000000    -0.957000000    -2.732000000
H     4.401000000    -2.442000000    -2.455000000
O     1.067000000    -2.232000000     5.589000000
H     0.592000000    -1.704000000     4.948000000
H     0.389000000    -2.552000000     6.184000000
O     3.458000000    -6.540000000    -2.141000000
H     3.582000000    -7.323000000    -2.678000000
H     2.528000000    -6.551000000    -1.913000000
O     6.136000000    -3.048000000     0.105000000
H     5.252000000    -2.886000000     0.434000000
H     6.052000000    -3.841000000    -0.425000000
O    -4.765000000     0.733000000     5.030000000
H    -5.430000000     0.979000000     5.673000000
H    -4.212000000     1.510000000     4.948000000
O    -4.168000000    -6.808000000    -2.322000000
H    -3.380000000    -6.659000000    -1.799000000
H    -4.072000000    -7.703000000    -2.650000000
O    -2.239000000    -5.881000000    -0.764000000
H    -1.918000000    -5.795000000     0.134000000
H    -2.046000000    -5.036000000    -1.170000000
O    -0.159000000    -1.969000000    -4.249000000
H     0.418000000    -2.205000000    -3.523000000
H    -1.028000000    -2.256000000    -3.967000000
O    -3.372000000     1.078000000    -3.795000000
H    -2.527000000     0.700000000    -4.036000000
H    -3.227000000     1.459000000    -2.928000000
O    -5.026000000    -1.572000000     1.659000000
H    -5.895000000    -1.850000000     1.367000000
H    -4.736000000    -0.952000000     0.991000000
O    -4.122000000     0.161000000    -0.743000000
H    -3.571000000     0.910000000    -0.972000000
H    -3.569000000    -0.603000000    -0.907000000
O     2.080000000     7.562000000    -1.155000000
H     1.900000000     7.180000000    -0.296000000
H     2.806000000     7.042000000    -1.501000000
O     4.380000000     2.060000000     0.913000000
H     3.560000000     1.634000000     1.161000000
H     4.765000000     2.340000000     1.743000000
