161
-3060.11221
C     0.282000000    -1.348000000    -0.448000000
H     0.568000000    -2.363000000    -0.711000000
C     1.225000000    -0.392000000    -0.143000000
H     2.271000000    -0.687000000    -0.172000000
C     0.899000000     0.901000000     0.246000000
C     1.894000000     1.926000000     0.508000000
H     2.569000000     1.654000000     1.322000000
H     2.454000000     2.147000000    -0.403000000
H     1.365000000     2.810000000     0.869000000
C    -0.489000000     1.163000000     0.314000000
H    -0.870000000     2.133000000     0.625000000
C    -1.454000000     0.158000000     0.105000000
H    -2.514000000     0.368000000     0.229000000
C    -1.091000000    -1.099000000    -0.295000000
C    -2.096000000    -2.200000000    -0.513000000
O    -3.293000000    -1.965000000    -0.414000000
O    -1.725000000    -3.206000000    -1.124000000
O     1.502000000     4.818000000    -2.177000000
H     1.920000000     4.021000000    -2.504000000
H     1.746000000     4.854000000    -1.252000000
O    -2.434000000     5.211000000    -1.496000000
H    -2.189000000     4.545000000    -2.138000000
H    -3.163000000     4.822000000    -1.014000000
O    -0.025000000    -5.383000000    -0.361000000
H     0.640000000    -5.257000000    -1.038000000
H    -0.714000000    -4.755000000    -0.582000000
O     4.745000000     5.328000000     1.482000000
H     4.634000000     6.257000000     1.684000000
H     5.142000000     4.957000000     2.271000000
O     3.441000000     6.517000000    -0.480000000
H     4.098000000     6.643000000    -1.164000000
H     3.787000000     5.804000000     0.056000000
O     2.576000000    -3.630000000     0.745000000
H     3.365000000    -3.867000000     1.231000000
H     2.404000000    -2.722000000     0.995000000
O    -7.423000000    -3.735000000    -3.370000000
H    -6.706000000    -3.514000000    -2.775000000
H    -7.189000000    -3.309000000    -4.195000000
O     1.366000000     4.891000000     2.641000000
H     1.069000000     5.745000000     2.954000000
H     1.480000000     5.008000000     1.698000000
O     4.608000000    -2.631000000    -3.153000000
H     5.218000000    -1.902000000    -3.037000000
H     4.046000000    -2.598000000    -2.379000000
O    -6.320000000    -3.447000000     3.832000000
H    -6.580000000    -4.250000000     3.382000000
H    -5.810000000    -2.963000000     3.183000000
O    -3.784000000    -5.872000000     3.088000000
H    -4.127000000    -5.088000000     3.518000000
H    -3.527000000    -5.572000000     2.216000000
O    -0.281000000     5.856000000     0.326000000
H    -0.862000000     5.729000000    -0.424000000
H    -0.804000000     5.590000000     1.082000000
O    -4.098000000     0.755000000     3.356000000
H    -4.018000000    -0.112000000     2.958000000
H    -4.617000000     0.608000000     4.147000000
O     6.197000000    -0.229000000    -2.576000000
H     6.965000000     0.238000000    -2.905000000
H     6.195000000    -0.053000000    -1.635000000
O    -5.719000000    -0.269000000    -3.635000000
H    -5.893000000     0.650000000    -3.838000000
H    -6.192000000    -0.757000000    -4.308000000
O     0.005000000    -7.301000000     1.614000000
H    -0.816000000    -7.785000000     1.709000000
H    -0.098000000    -6.815000000     0.795000000
O    -3.061000000    -4.716000000    -2.932000000
H    -2.485000000    -5.147000000    -3.563000000
H    -2.477000000    -4.163000000    -2.413000000
O     4.531000000     5.114000000    -3.710000000
H     4.003000000     5.859000000    -3.424000000
H     4.668000000     4.598000000    -2.915000000
O    -3.235000000    -2.009000000    -5.064000000
H    -3.648000000    -1.197000000    -4.769000000
H    -3.968000000    -2.596000000    -5.251000000
O     5.349000000    -1.229000000     2.520000000
H     5.613000000    -0.896000000     3.377000000
H     4.393000000    -1.200000000     2.535000000
O    -2.220000000     5.166000000     2.408000000
H    -2.079000000     5.208000000     3.354000000
H    -2.703000000     4.351000000     2.273000000
O     2.476000000    -1.283000000     2.572000000
H     2.278000000    -1.771000000     3.371000000
H     1.644000000    -0.880000000     2.325000000
O    -0.807000000    -1.892000000    -3.525000000
H    -1.367000000    -1.969000000    -4.297000000
H    -1.275000000    -2.368000000    -2.840000000
O    -4.347000000     0.435000000    -1.428000000
H    -3.993000000    -0.336000000    -0.985000000
H    -4.816000000     0.082000000    -2.184000000
O     4.523000000     3.379000000    -1.493000000
H     3.799000000     2.924000000    -1.063000000
H     5.167000000     2.692000000    -1.668000000
O     2.356000000     2.349000000    -3.289000000
H     1.475000000     2.122000000    -3.589000000
H     2.935000000     2.018000000    -3.975000000
O     2.750000000     3.772000000     4.806000000
H     3.623000000     4.095000000     4.581000000
H     2.194000000     4.061000000     4.082000000
O    -2.194000000    -2.368000000     3.537000000
H    -1.529000000    -2.998000000     3.259000000
H    -2.600000000    -2.770000000     4.305000000
O    -0.216000000    -0.125000000     3.319000000
H    -0.541000000     0.412000000     2.598000000
H    -0.870000000    -0.817000000     3.417000000
O     5.971000000     0.404000000    -0.008000000
H     5.467000000    -0.065000000     0.656000000
H     6.169000000     1.250000000     0.394000000
O    -0.250000000    -3.703000000     2.234000000
H    -0.395000000    -3.836000000     1.297000000
H     0.134000000    -4.527000000     2.536000000
O     3.070000000    -4.961000000    -1.531000000
H     2.639000000    -4.313000000    -2.088000000
H     2.985000000    -4.610000000    -0.645000000
O    -7.259000000    -1.507000000     0.534000000
H    -7.614000000    -2.348000000     0.245000000
H    -6.483000000    -1.737000000     1.045000000
O    -3.116000000    -5.058000000     0.572000000
H    -2.834000000    -4.382000000    -0.045000000
H    -3.048000000    -5.876000000     0.080000000
O    -4.654000000     3.555000000     3.670000000
H    -4.156000000     3.770000000     4.458000000
H    -4.427000000     2.645000000     3.483000000
O    -3.727000000     2.855000000    -2.840000000
H    -4.608000000     3.088000000    -3.133000000
H    -3.867000000     2.205000000    -2.152000000
O    -3.089000000    -7.119000000    -1.791000000
H    -3.973000000    -7.483000000    -1.838000000
H    -3.088000000    -6.407000000    -2.430000000
O    -5.093000000    -3.235000000    -1.855000000
H    -4.577000000    -3.614000000    -2.567000000
H    -4.465000000    -2.712000000    -1.357000000
O     1.798000000    -3.130000000    -2.918000000
H     1.781000000    -3.543000000    -3.781000000
H     0.969000000    -2.654000000    -2.864000000
O    -0.406000000     0.845000000    -2.983000000
H    -0.607000000     0.825000000    -2.048000000
H    -0.550000000    -0.055000000    -3.278000000
O     0.126000000     2.117000000     4.981000000
H     0.167000000     1.495000000     4.254000000
H     1.022000000     2.445000000     5.065000000
O    -4.535000000    -1.975000000     2.078000000
H    -3.817000000    -1.866000000     2.700000000
H    -4.123000000    -2.351000000     1.300000000
O    -0.778000000    -5.523000000    -4.325000000
H    -0.773000000    -6.478000000    -4.380000000
H     0.146000000    -5.276000000    -4.360000000
O    -1.379000000     3.408000000    -3.794000000
H    -2.325000000     3.270000000    -3.738000000
H    -1.000000000     2.564000000    -3.548000000
O    -5.625000000     1.748000000     0.688000000
H    -5.823000000     1.224000000     1.464000000
H    -5.173000000     1.143000000     0.100000000
O    -7.360000000    -4.873000000    -0.532000000
H    -7.942000000    -5.199000000    -1.219000000
H    -6.489000000    -4.890000000    -0.927000000
O     6.312000000     2.929000000     0.728000000
H     5.915000000     3.792000000     0.612000000
H     6.971000000     3.058000000     1.410000000
O    -4.326000000     4.032000000     0.015000000
H    -4.880000000     3.265000000     0.162000000
H    -4.932000000     4.773000000     0.036000000
