161
-3059.76359
C     1.187000000     0.588000000     0.674000000
H     1.986000000     1.051000000     1.247000000
C     0.023000000     0.232000000     1.343000000
H     0.009000000     0.475000000     2.402000000
C    -1.028000000    -0.296000000     0.592000000
C    -2.317000000    -0.610000000     1.230000000
H    -2.776000000     0.196000000     1.806000000
H    -3.063000000    -0.934000000     0.502000000
H    -2.192000000    -1.472000000     1.889000000
C    -0.860000000    -0.593000000    -0.764000000
H    -1.653000000    -1.088000000    -1.319000000
C     0.279000000    -0.234000000    -1.484000000
H     0.344000000    -0.523000000    -2.530000000
C     1.296000000     0.387000000    -0.769000000
C     2.544000000     0.905000000    -1.449000000
O     2.838000000     0.488000000    -2.586000000
O     3.389000000     1.425000000    -0.776000000
O     5.604000000     2.005000000    -2.186000000
H     4.765000000     1.763000000    -1.794000000
H     6.175000000     1.258000000    -2.010000000
O     2.360000000    -2.203000000    -3.364000000
H     2.829000000    -2.225000000    -4.198000000
H     2.221000000    -1.271000000    -3.191000000
O     1.146000000    -4.536000000    -3.870000000
H     1.353000000    -3.688000000    -3.477000000
H     0.194000000    -4.607000000    -3.800000000
O    -5.583000000    -2.470000000     0.858000000
H    -6.005000000    -1.614000000     0.786000000
H    -5.345000000    -2.544000000     1.782000000
O    -1.285000000     1.370000000     4.501000000
H    -2.012000000     1.477000000     5.114000000
H    -1.009000000     0.460000000     4.612000000
O     4.501000000     5.974000000    -2.279000000
H     4.102000000     5.235000000    -2.738000000
H     3.812000000     6.637000000    -2.247000000
O    -3.880000000     2.774000000     3.001000000
H    -3.837000000     3.332000000     2.225000000
H    -2.995000000     2.421000000     3.092000000
O    -0.690000000    -3.849000000    -1.079000000
H     0.024000000    -3.363000000    -0.667000000
H    -0.686000000    -4.699000000    -0.639000000
O     2.517000000     3.317000000     2.749000000
H     1.578000000     3.406000000     2.585000000
H     2.932000000     3.678000000     1.966000000
O     7.463000000    -0.294000000    -2.947000000
H     7.609000000    -0.546000000    -3.859000000
H     6.641000000    -0.723000000    -2.709000000
O     3.720000000     3.923000000     0.342000000
H     3.708000000     3.003000000     0.079000000
H     4.378000000     4.326000000    -0.225000000
O    -5.683000000    -5.428000000     2.409000000
H    -5.031000000    -4.733000000     2.499000000
H    -6.227000000    -5.349000000     3.192000000
O    -4.302000000    -0.061000000    -3.480000000
H    -5.230000000     0.073000000    -3.673000000
H    -4.000000000     0.787000000    -3.153000000
O    -2.206000000    -4.562000000     2.759000000
H    -2.092000000    -4.981000000     1.906000000
H    -2.245000000    -5.290000000     3.379000000
O    -0.396000000    -2.811000000     3.127000000
H     0.163000000    -2.676000000     2.361000000
H    -1.140000000    -3.312000000     2.795000000
O     1.822000000    -3.580000000     4.830000000
H     2.522000000    -4.045000000     4.372000000
H     1.217000000    -3.316000000     4.137000000
O     3.158000000    -2.663000000    -5.952000000
H     3.034000000    -2.179000000    -6.768000000
H     3.596000000    -3.472000000    -6.217000000
O     0.507000000     1.769000000    -4.071000000
H     1.137000000     1.049000000    -4.028000000
H     0.344000000     1.889000000    -5.007000000
O    -5.159000000    -2.541000000    -2.564000000
H    -4.673000000    -1.739000000    -2.754000000
H    -4.596000000    -3.023000000    -1.957000000
O     4.682000000    -1.839000000     2.962000000
H     5.489000000    -2.173000000     3.352000000
H     4.583000000    -0.961000000     3.330000000
O     5.214000000    -1.318000000    -2.042000000
H     4.446000000    -0.768000000    -2.197000000
H     5.183000000    -1.975000000    -2.738000000
O     6.747000000     4.244000000    -1.051000000
H     6.290000000     4.926000000    -1.543000000
H     6.254000000     3.445000000    -1.235000000
O    -2.864000000    -1.536000000    -4.892000000
H    -2.370000000    -1.088000000    -5.578000000
H    -3.222000000    -0.829000000    -4.354000000
O    -3.801000000    -4.237000000    -0.850000000
H    -4.174000000    -5.119000000    -0.874000000
H    -3.821000000    -3.994000000     0.076000000
O     3.707000000    -0.841000000     5.513000000
H     3.077000000    -1.196000000     4.885000000
H     3.403000000     0.051000000     5.679000000
O    -4.089000000     2.498000000    -2.591000000
H    -3.891000000     3.048000000    -1.833000000
H    -4.996000000     2.224000000    -2.457000000
O    -3.366000000    -1.425000000     5.877000000
H    -3.580000000    -0.578000000     6.268000000
H    -2.460000000    -1.332000000     5.585000000
O     5.692000000     2.545000000    -5.188000000
H     5.630000000     2.334000000    -4.256000000
H     5.852000000     3.488000000    -5.210000000
O     1.087000000    -2.801000000     0.651000000
H     0.933000000    -1.858000000     0.591000000
H     2.028000000    -2.900000000     0.510000000
O    -1.182000000     2.398000000    -1.823000000
H    -1.459000000     1.495000000    -1.668000000
H    -0.518000000     2.331000000    -2.509000000
O     3.627000000     0.615000000    -5.503000000
H     3.447000000     0.566000000    -4.564000000
H     4.179000000     1.391000000    -5.600000000
O    -0.474000000    -1.326000000     5.556000000
H    -0.399000000    -2.000000000     4.880000000
H    -0.258000000    -1.779000000     6.371000000
O    -7.324000000    -4.225000000    -0.170000000
H    -6.505000000    -3.800000000     0.086000000
H    -7.400000000    -4.974000000     0.421000000
O     4.395000000     1.435000000     3.489000000
H     5.262000000     1.701000000     3.797000000
H     3.873000000     2.236000000     3.520000000
O     7.799000000     0.973000000     0.727000000
H     6.859000000     0.800000000     0.672000000
H     8.198000000     0.105000000     0.798000000
O    -6.597000000     2.787000000     3.214000000
H    -5.724000000     2.835000000     3.602000000
H    -6.565000000     3.395000000     2.475000000
O    -1.545000000    -3.988000000    -3.707000000
H    -1.651000000    -3.737000000    -2.790000000
H    -1.922000000    -3.260000000    -4.201000000
O    -6.535000000     1.627000000    -1.758000000
H    -7.479000000     1.693000000    -1.900000000
H    -6.444000000     1.018000000    -1.026000000
O     4.025000000    -2.404000000     0.332000000
H     4.363000000    -2.177000000     1.198000000
H     4.444000000    -1.779000000    -0.260000000
O    -4.293000000    -3.109000000     3.365000000
H    -3.376000000    -3.349000000     3.234000000
H    -4.287000000    -2.558000000     4.148000000
O     5.274000000     0.259000000     0.540000000
H     4.941000000     0.285000000     1.437000000
H     4.639000000     0.767000000     0.034000000
O     0.469000000     4.731000000    -2.353000000
H     0.158000000     3.870000000    -2.073000000
H     1.326000000     4.561000000    -2.744000000
O     0.812000000     5.031000000     0.539000000
H     0.215000000     4.474000000     0.039000000
H     1.686000000     4.743000000     0.277000000
O    -2.217000000     4.089000000     0.737000000
H    -2.264000000     3.628000000    -0.100000000
H    -2.712000000     4.896000000     0.595000000
O     2.849000000     3.863000000    -3.375000000
H     2.641000000     3.928000000    -4.307000000
H     2.692000000     2.944000000    -3.157000000
O     0.805000000     3.377000000     5.590000000
H     0.110000000     4.034000000     5.624000000
H     0.945000000     3.226000000     4.655000000
O    -0.402000000     3.558000000     2.839000000
H    -1.009000000     3.664000000     2.106000000
H    -0.792000000     2.866000000     3.373000000
O    -7.029000000    -0.287000000     0.250000000
H    -7.616000000     0.292000000     0.736000000
H    -7.609000000    -0.797000000    -0.316000000
