161
-3073.67289
C     0.654000000    -0.963000000     0.893000000
H     1.233000000    -1.653000000     1.502000000
C     1.204000000     0.278000000     0.500000000
H     2.214000000     0.495000000     0.840000000
C     0.424000000     1.097000000    -0.382000000
C     1.050000000     2.457000000    -0.913000000
H     0.457000000     3.286000000    -0.522000000
H     2.106000000     2.573000000    -0.658000000
H     1.040000000     2.406000000    -2.004000000
C    -0.847000000     0.635000000    -0.780000000
H    -1.372000000     1.341000000    -1.420000000
C    -1.402000000    -0.536000000    -0.352000000
H    -2.447000000    -0.762000000    -0.551000000
C    -0.619000000    -1.396000000     0.450000000
C    -1.105000000    -2.739000000     1.014000000
O    -2.045000000    -3.176000000     0.439000000
O    -0.551000000    -3.344000000     1.943000000
O     2.988000000     5.836000000    -4.077000000
H     2.099000000     5.510000000    -3.934000000
H     3.507000000     5.430000000    -3.383000000
O    -5.497000000    -2.405000000     2.567000000
H    -6.232000000    -2.957000000     2.834000000
H    -5.659000000    -1.565000000     2.997000000
O    -0.970000000    -5.979000000     3.590000000
H    -0.312000000    -6.023000000     2.896000000
H    -1.500000000    -5.213000000     3.369000000
O    -0.783000000    -5.110000000     6.489000000
H    -0.924000000    -4.170000000     6.371000000
H    -1.106000000    -5.504000000     5.678000000
O    -2.219000000    -2.785000000     5.661000000
H    -2.588000000    -3.153000000     4.858000000
H    -2.354000000    -1.841000000     5.576000000
O    -4.066000000     1.711000000    -2.510000000
H    -3.367000000     1.524000000    -3.136000000
H    -4.767000000     2.090000000    -3.040000000
O     5.146000000     2.374000000    -4.366000000
H     5.558000000     1.900000000    -3.645000000
H     5.139000000     3.288000000    -4.080000000
O     3.285000000    -7.179000000     2.566000000
H     2.948000000    -7.667000000     3.317000000
H     2.586000000    -6.562000000     2.348000000
O     3.295000000    -3.552000000    -0.378000000
H     2.380000000    -3.717000000    -0.606000000
H     3.259000000    -3.179000000     0.503000000
O     0.023000000     4.243000000     1.778000000
H     0.599000000     4.551000000     1.078000000
H     0.603000000     3.772000000     2.376000000
O     1.828000000     5.637000000    -0.621000000
H     1.350000000     5.645000000    -1.450000000
H     1.828000000     6.550000000    -0.335000000
O     0.376000000     2.996000000    -4.784000000
H     1.119000000     2.404000000    -4.905000000
H    -0.394000000     2.430000000    -4.848000000
O    -0.198000000    -6.793000000    -1.428000000
H    -1.089000000    -7.143000000    -1.435000000
H     0.362000000    -7.568000000    -1.385000000
O    -2.470000000    -4.326000000    -1.863000000
H    -2.410000000    -3.699000000    -1.143000000
H    -1.678000000    -4.174000000    -2.380000000
O     4.926000000     0.112000000     1.945000000
H     5.827000000     0.027000000     2.256000000
H     4.917000000    -0.348000000     1.106000000
O     1.860000000    -2.662000000     5.961000000
H     1.304000000    -2.423000000     6.702000000
H     1.266000000    -2.677000000     5.211000000
O     2.792000000     5.043000000     1.999000000
H     3.706000000     4.808000000     1.840000000
H     2.477000000     5.365000000     1.155000000
O     1.769000000     2.610000000     3.431000000
H     2.596000000     3.037000000     3.204000000
H     2.017000000     1.715000000     3.660000000
O    -2.994000000    -0.534000000     2.793000000
H    -3.393000000    -0.656000000     1.931000000
H    -2.353000000     0.165000000     2.663000000
O    -1.754000000     6.637000000     0.907000000
H    -1.458000000     7.264000000     1.566000000
H    -1.419000000     5.793000000     1.211000000
O    -3.006000000    -3.989000000     3.219000000
H    -2.382000000    -3.785000000     2.524000000
H    -3.837000000    -3.627000000     2.910000000
O     1.046000000    -4.507000000    -1.831000000
H     1.189000000    -4.375000000    -2.768000000
H     0.758000000    -5.417000000    -1.758000000
O     0.717000000    -5.877000000     1.418000000
H     0.264000000    -6.043000000     0.592000000
H     0.446000000    -4.992000000     1.666000000
O    -2.238000000    -1.563000000    -4.808000000
H    -2.785000000    -1.478000000    -4.026000000
H    -1.733000000    -2.362000000    -4.661000000
O    -4.839000000    -5.639000000    -2.418000000
H    -3.968000000    -5.334000000    -2.164000000
H    -5.424000000    -4.922000000    -2.173000000
O     0.185000000    -2.149000000     4.154000000
H     0.191000000    -2.817000000     3.469000000
H    -0.744000000    -1.966000000     4.301000000
O    -5.310000000     4.599000000    -1.369000000
H    -6.045000000     4.681000000    -0.762000000
H    -4.604000000     4.226000000    -0.842000000
O    -3.064000000    -5.495000000     0.526000000
H    -2.814000000    -4.577000000     0.624000000
H    -2.943000000    -5.678000000    -0.406000000
O     2.619000000     1.727000000    -5.511000000
H     2.564000000     0.832000000    -5.178000000
H     3.550000000     1.945000000    -5.460000000
O    -3.841000000    -0.921000000    -2.541000000
H    -4.059000000    -0.003000000    -2.376000000
H    -4.325000000    -1.406000000    -1.873000000
O     0.497000000     5.292000000    -3.072000000
H     0.622000000     4.499000000    -3.593000000
H    -0.452000000     5.408000000    -3.036000000
O     0.519000000    -1.727000000    -2.403000000
H    -0.134000000    -1.280000000    -1.866000000
H     0.636000000    -2.578000000    -1.980000000
O    -0.679000000     5.232000000    -6.337000000
H    -0.217000000     4.554000000    -5.843000000
H    -1.177000000     4.749000000    -6.997000000
O     4.455000000     2.512000000     2.974000000
H     4.556000000     1.633000000     2.609000000
H     5.277000000     2.955000000     2.764000000
O     5.800000000     6.293000000    -0.690000000
H     5.239000000     5.609000000    -1.054000000
H     6.146000000     6.752000000    -1.455000000
O     4.861000000    -0.966000000    -0.409000000
H     4.368000000    -1.746000000    -0.664000000
H     5.698000000    -1.051000000    -0.866000000
O     2.584000000    -0.141000000     4.135000000
H     3.205000000    -0.315000000     3.428000000
H     1.907000000    -0.809000000     4.029000000
O     1.318000000    -0.691000000    -4.839000000
H     0.481000000    -0.307000000    -5.100000000
H     1.109000000    -1.218000000    -4.068000000
O    -2.034000000     1.309000000    -4.701000000
H    -1.882000000     0.367000000    -4.775000000
H    -2.820000000     1.467000000    -5.224000000
O    -3.841000000    -6.402000000     4.855000000
H    -4.053000000    -6.810000000     4.015000000
H    -3.409000000    -5.581000000     4.620000000
O    -2.926000000    -7.719000000     2.192000000
H    -3.062000000    -7.217000000     1.388000000
H    -2.308000000    -7.194000000     2.700000000
O    -5.007000000    -2.169000000    -0.203000000
H    -4.138000000    -2.541000000    -0.055000000
H    -5.429000000    -2.196000000     0.656000000
O     3.312000000    -3.400000000     2.546000000
H     3.510000000    -2.982000000     3.384000000
H     3.817000000    -4.213000000     2.559000000
O     4.450000000     1.921000000    -0.689000000
H     5.281000000     1.630000000    -0.312000000
H     3.798000000     1.327000000    -0.317000000
O    -1.054000000     1.230000000     2.484000000
H    -0.653000000     1.511000000     1.661000000
H    -0.533000000     1.658000000     3.163000000
O     4.140000000     4.571000000    -1.694000000
H     4.488000000     3.708000000    -1.472000000
H     3.221000000     4.535000000    -1.428000000
O    -5.629000000     2.051000000     0.421000000
H    -6.416000000     2.018000000    -0.123000000
H    -4.905000000     1.960000000    -0.199000000
O    -2.254000000     5.555000000    -3.379000000
H    -2.744000000     4.875000000    -3.841000000
H    -2.392000000     6.346000000    -3.900000000
