161
-3054.35975
C     1.216000000    -0.620000000     0.702000000
H     2.102000000    -0.822000000     1.299000000
C     1.287000000     0.466000000    -0.145000000
H     2.244000000     0.972000000    -0.246000000
C     0.076000000     0.944000000    -0.721000000
C     0.139000000     2.120000000    -1.605000000
H     0.874000000     2.854000000    -1.267000000
H     0.407000000     1.898000000    -2.640000000
H    -0.823000000     2.577000000    -1.843000000
C    -1.172000000     0.292000000    -0.488000000
H    -2.092000000     0.719000000    -0.877000000
C    -1.204000000    -0.857000000     0.267000000
H    -2.199000000    -1.243000000     0.475000000
C     0.012000000    -1.255000000     0.891000000
C    -0.205000000    -2.391000000     1.818000000
O    -1.126000000    -3.153000000     1.513000000
O     0.457000000    -2.499000000     2.860000000
O    -4.858000000    -3.985000000     4.957000000
H    -5.631000000    -3.891000000     5.513000000
H    -4.635000000    -3.090000000     4.702000000
O     4.329000000    -4.468000000     3.539000000
H     3.424000000    -4.778000000     3.567000000
H     4.255000000    -3.513000000     3.534000000
O    -1.855000000    -7.411000000     0.979000000
H    -1.509000000    -6.610000000     0.586000000
H    -1.887000000    -7.224000000     1.917000000
O    -2.566000000     3.550000000     0.648000000
H    -1.804000000     2.984000000     0.775000000
H    -2.828000000     3.396000000    -0.260000000
O     4.900000000    -1.317000000    -0.826000000
H     4.047000000    -1.724000000    -0.677000000
H     5.244000000    -1.760000000    -1.602000000
O     1.049000000     2.950000000     1.819000000
H     0.993000000     3.896000000     1.956000000
H     1.937000000     2.807000000     1.493000000
O    -5.636000000    -3.679000000    -0.224000000
H    -6.191000000    -2.911000000    -0.088000000
H    -4.856000000    -3.507000000     0.303000000
O    -3.537000000    -4.126000000    -1.872000000
H    -3.215000000    -5.021000000    -1.971000000
H    -4.360000000    -4.218000000    -1.392000000
O    -2.753000000     2.262000000    -4.263000000
H    -1.884000000     1.906000000    -4.444000000
H    -3.087000000     1.725000000    -3.544000000
O     2.459000000     2.290000000    -4.649000000
H     2.755000000     1.487000000    -4.220000000
H     1.605000000     2.064000000    -5.017000000
O    -1.702000000     5.551000000    -2.276000000
H    -2.307000000     4.811000000    -2.224000000
H    -1.209000000     5.401000000    -3.082000000
O     6.729000000    -0.945000000     0.896000000
H     7.209000000    -0.398000000     0.274000000
H     5.918000000    -1.170000000     0.441000000
O    -1.798000000    -7.423000000     3.949000000
H    -1.163000000    -6.819000000     4.335000000
H    -2.580000000    -7.328000000     4.493000000
O     4.276000000     4.326000000    -0.942000000
H     4.837000000     3.594000000    -1.198000000
H     3.501000000     4.239000000    -1.497000000
O     4.170000000     2.482000000     1.447000000
H     4.193000000     2.351000000     0.499000000
H     4.250000000     1.600000000     1.812000000
O    -1.721000000    -4.389000000     3.943000000
H    -2.543000000    -3.942000000     4.145000000
H    -1.542000000    -4.161000000     3.031000000
O     0.910000000    -5.556000000     3.486000000
H     1.186000000    -5.281000000     2.612000000
H     0.018000000    -5.220000000     3.574000000
O     1.577000000    -2.221000000     6.680000000
H     1.382000000    -1.289000000     6.773000000
H     0.966000000    -2.527000000     6.010000000
O     2.220000000    -4.837000000     0.834000000
H     2.523000000    -4.083000000     0.328000000
H     2.701000000    -5.579000000     0.467000000
O    -0.452000000    -1.240000000    -4.889000000
H    -0.968000000    -1.610000000    -4.172000000
H    -1.060000000    -1.203000000    -5.627000000
O    -2.293000000    -6.344000000    -2.139000000
H    -1.818000000    -5.986000000    -1.389000000
H    -2.278000000    -7.291000000    -2.002000000
O     2.829000000    -2.181000000     3.962000000
H     2.074000000    -2.327000000     3.392000000
H     2.452000000    -2.054000000     4.832000000
O     3.649000000     1.650000000     5.202000000
H     3.246000000     2.508000000     5.073000000
H     3.900000000     1.369000000     4.322000000
O    -3.847000000     3.483000000    -1.669000000
H    -4.195000000     3.741000000    -2.522000000
H    -4.574000000     3.621000000    -1.062000000
O     0.817000000     0.335000000     5.782000000
H     0.731000000     0.874000000     6.567000000
H     1.096000000     0.946000000     5.100000000
O    -0.659000000    -5.109000000    -0.318000000
H     0.273000000    -5.181000000    -0.113000000
H    -0.932000000    -4.287000000     0.089000000
O     0.714000000     5.598000000     1.991000000
H     0.026000000     5.919000000     1.407000000
H     1.453000000     6.187000000     1.838000000
O    -4.290000000     4.337000000     2.701000000
H    -3.670000000     3.957000000     2.078000000
H    -4.163000000     5.283000000     2.618000000
O     4.053000000    -0.387000000    -3.842000000
H     4.474000000    -1.231000000    -3.677000000
H     4.733000000     0.260000000    -3.655000000
O    -1.896000000    -2.327000000    -2.808000000
H    -1.211000000    -2.995000000    -2.791000000
H    -2.624000000    -2.717000000    -2.324000000
O    -1.485000000     6.354000000     0.160000000
H    -1.502000000     5.932000000    -0.699000000
H    -2.399000000     6.357000000     0.444000000
O     2.880000000     4.789000000    -3.232000000
H     2.576000000     3.945000000    -3.564000000
H     2.256000000     5.424000000    -3.586000000
O     2.429000000    -2.621000000    -1.141000000
H     1.868000000    -1.972000000    -1.566000000
H     2.417000000    -3.373000000    -1.733000000
O     4.857000000     3.292000000    -5.582000000
H     5.335000000     3.004000000    -4.805000000
H     3.944000000     3.342000000    -5.297000000
O    -0.762000000    -2.066000000     5.063000000
H    -0.401000000    -2.432000000     4.255000000
H    -0.480000000    -1.151000000     5.058000000
O     4.830000000     1.377000000    -1.019000000
H     4.520000000     0.523000000    -0.718000000
H     5.412000000     1.176000000    -1.752000000
O     4.414000000     0.012000000     3.024000000
H     5.003000000    -0.564000000     2.537000000
H     3.748000000    -0.574000000     3.383000000
O    -5.280000000     0.510000000     2.183000000
H    -4.877000000     1.375000000     2.257000000
H    -5.162000000     0.268000000     1.264000000
O     2.161000000    -2.142000000    -5.415000000
H     1.245000000    -1.954000000    -5.617000000
H     2.361000000    -1.583000000    -4.664000000
O    -0.254000000     1.688000000    -5.405000000
H    -0.182000000     0.744000000    -5.263000000
H    -0.435000000     1.776000000    -6.341000000
O    -2.662000000    -2.008000000     6.879000000
H    -2.069000000    -1.703000000     7.566000000
H    -2.097000000    -2.141000000     6.118000000
O    -3.700000000    -3.539000000     1.470000000
H    -2.766000000    -3.396000000     1.316000000
H    -3.908000000    -2.981000000     2.220000000
O    -2.318000000     0.675000000     4.793000000
H    -2.802000000     1.460000000     5.052000000
H    -2.030000000     0.856000000     3.898000000
O    -1.034000000     1.598000000     2.589000000
H    -0.433000000     2.315000000     2.789000000
H    -0.719000000     1.247000000     1.756000000
O    -4.803000000    -0.016000000    -0.355000000
H    -4.259000000     0.031000000    -1.141000000
H    -5.692000000     0.155000000    -0.668000000
O    -3.719000000    -0.278000000    -3.042000000
H    -3.009000000    -0.909000000    -2.923000000
H    -4.278000000    -0.671000000    -3.712000000
O    -0.518000000     5.688000000    -5.107000000
H    -1.347000000     6.161000000    -5.176000000
H    -0.672000000     4.866000000    -5.573000000
O    -4.145000000    -1.566000000     3.723000000
H    -3.440000000    -1.220000000     4.270000000
H    -4.472000000    -0.805000000     3.243000000
