161
-3025.15886
C     0.602000000     1.426000000     0.125000000
H     1.047000000     2.410000000     0.254000000
C    -0.544000000     0.911000000     0.821000000
H    -0.964000000     1.478000000     1.648000000
C    -0.961000000    -0.373000000     0.554000000
C    -2.244000000    -0.938000000     1.276000000
H    -2.649000000    -1.831000000     0.795000000
H    -1.998000000    -1.370000000     2.248000000
H    -3.033000000    -0.195000000     1.410000000
C    -0.378000000    -1.159000000    -0.350000000
H    -0.791000000    -2.094000000    -0.721000000
C     0.738000000    -0.689000000    -1.026000000
H     1.210000000    -1.375000000    -1.726000000
C     1.289000000     0.540000000    -0.676000000
C     2.562000000     0.958000000    -1.367000000
O     2.906000000     0.346000000    -2.350000000
O     3.208000000     1.955000000    -0.913000000
O     1.683000000    -2.201000000     1.522000000
H     1.626000000    -1.667000000     2.315000000
H     1.285000000    -1.660000000     0.840000000
O     5.802000000     1.719000000    -1.655000000
H     4.946000000     1.746000000    -1.228000000
H     5.618000000     1.394000000    -2.537000000
O     3.997000000    -5.068000000    -0.829000000
H     3.824000000    -4.795000000     0.072000000
H     3.141000000    -5.336000000    -1.166000000
O     1.496000000    -5.875000000    -2.133000000
H     1.396000000    -4.998000000    -2.503000000
H     0.810000000    -5.934000000    -1.468000000
O    -4.620000000    -2.991000000     3.297000000
H    -5.569000000    -3.113000000     3.326000000
H    -4.433000000    -2.392000000     4.020000000
O    -3.242000000     4.025000000     2.614000000
H    -3.002000000     4.648000000     1.929000000
H    -2.404000000     3.716000000     2.960000000
O    -5.601000000     0.309000000     2.834000000
H    -4.986000000     0.256000000     3.565000000
H    -6.432000000     0.006000000     3.198000000
O     4.069000000     4.418000000    -2.697000000
H     4.991000000     4.179000000    -2.599000000
H     3.866000000     4.220000000    -3.611000000
O    -2.363000000    -5.258000000    -1.013000000
H    -2.545000000    -6.122000000    -1.383000000
H    -2.845000000    -5.245000000    -0.186000000
O    -1.532000000     1.928000000     4.737000000
H    -1.035000000     2.325000000     5.452000000
H    -0.986000000     1.198000000     4.443000000
O     4.036000000     4.128000000     0.568000000
H     3.857000000     3.365000000     0.019000000
H     3.884000000     4.878000000    -0.008000000
O    -0.819000000     7.211000000    -0.188000000
H    -0.160000000     6.521000000    -0.267000000
H    -1.543000000     6.916000000    -0.739000000
O    -4.162000000    -3.131000000    -1.673000000
H    -3.677000000    -3.914000000    -1.414000000
H    -4.663000000    -2.890000000    -0.894000000
O     5.082000000    -2.105000000    -0.533000000
H     5.078000000    -1.575000000    -1.329000000
H     4.477000000    -2.823000000    -0.719000000
O    -3.662000000    -6.216000000     3.785000000
H    -3.616000000    -5.682000000     2.992000000
H    -4.597000000    -6.370000000     3.916000000
O    -0.820000000     1.294000000    -3.011000000
H    -0.242000000     0.932000000    -3.683000000
H    -0.254000000     1.864000000    -2.490000000
O    -0.114000000    -6.883000000    -0.066000000
H    -0.986000000    -6.910000000    -0.461000000
H    -0.212000000    -6.304000000     0.690000000
O    -2.796000000    -4.443000000    -4.843000000
H    -2.408000000    -4.312000000    -5.708000000
H    -2.788000000    -3.573000000    -4.443000000
O     3.182000000    -4.157000000    -4.699000000
H     3.767000000    -4.247000000    -5.452000000
H     2.335000000    -4.471000000    -5.016000000
O     4.364000000    -1.730000000    -3.140000000
H     3.883000000    -0.972000000    -2.807000000
H     3.699000000    -2.262000000    -3.577000000
O     3.373000000    -4.258000000     1.572000000
H     3.121000000    -3.335000000     1.535000000
H     2.938000000    -4.593000000     2.356000000
O     7.188000000     3.847000000    -0.568000000
H     7.209000000     4.449000000    -1.311000000
H     6.504000000     3.216000000    -0.790000000
O    -1.570000000    -1.896000000    -4.014000000
H    -1.154000000    -1.340000000    -4.673000000
H    -1.335000000    -1.491000000    -3.178000000
O    -3.330000000    -4.774000000     1.581000000
H    -4.121000000    -5.170000000     1.215000000
H    -3.579000000    -3.869000000     1.766000000
O     4.165000000     0.922000000     1.543000000
H     3.804000000     1.324000000     0.753000000
H     5.093000000     0.795000000     1.345000000
O     2.359000000    -1.152000000    -6.387000000
H     1.655000000    -1.633000000    -6.823000000
H     1.907000000    -0.502000000    -5.849000000
O    -5.108000000     3.116000000     0.510000000
H    -4.193000000     2.873000000     0.367000000
H    -5.314000000     2.772000000     1.379000000
O    -4.058000000    -0.105000000     4.875000000
H    -3.191000000     0.283000000     4.759000000
H    -4.221000000    -0.050000000     5.816000000
O     1.726000000     3.628000000    -4.927000000
H     1.129000000     4.295000000    -5.267000000
H     2.297000000     3.418000000    -5.666000000
O    -0.637000000    -5.076000000     2.184000000
H    -1.560000000    -4.821000000     2.168000000
H    -0.161000000    -4.261000000     2.026000000
O    -3.393000000     1.074000000    -2.751000000
H    -2.477000000     1.095000000    -3.029000000
H    -3.391000000     1.488000000    -1.889000000
O     1.164000000     0.632000000    -4.697000000
H     1.764000000     0.357000000    -4.004000000
H     1.399000000     1.544000000    -4.869000000
O     0.439000000    -0.134000000     4.218000000
H     0.815000000    -0.173000000     5.098000000
H     0.060000000    -1.002000000     4.081000000
O     1.261000000     5.688000000     4.311000000
H     2.072000000     5.357000000     3.925000000
H     0.578000000     5.425000000     3.694000000
O     2.065000000     1.943000000     3.508000000
H     2.701000000     1.518000000     2.933000000
H     1.441000000     1.251000000     3.727000000
O    -0.461000000    -3.973000000    -2.681000000
H    -1.102000000    -4.382000000    -2.099000000
H    -0.941000000    -3.259000000    -3.101000000
O    -5.569000000    -1.651000000     0.313000000
H    -6.453000000    -1.291000000     0.389000000
H    -5.092000000    -1.272000000     1.051000000
O    -0.487000000    -2.583000000     4.162000000
H    -1.418000000    -2.804000000     4.134000000
H    -0.152000000    -3.057000000     4.923000000
O     5.581000000     2.503000000    -5.801000000
H     5.810000000     1.912000000    -5.084000000
H     6.194000000     3.234000000    -5.714000000
O     6.686000000     0.335000000     1.019000000
H     6.745000000     0.555000000     0.089000000
H     7.481000000    -0.168000000     1.196000000
O     1.363000000     3.321000000    -2.156000000
H     1.518000000     3.514000000    -3.081000000
H     2.194000000     2.963000000    -1.844000000
O     0.876000000     5.284000000    -0.292000000
H     0.803000000     4.612000000    -0.969000000
H     1.771000000     5.613000000    -0.376000000
O     3.460000000     6.312000000    -0.988000000
H     3.516000000     5.819000000    -1.807000000
H     4.335000000     6.682000000    -0.871000000
O    -4.774000000    -1.160000000    -3.773000000
H    -4.733000000    -1.730000000    -3.005000000
H    -4.076000000    -0.520000000    -3.634000000
O     6.204000000     0.400000000    -4.035000000
H     5.544000000    -0.272000000    -4.209000000
H     7.038000000    -0.068000000    -4.074000000
O    -2.850000000     3.285000000    -1.244000000
H    -1.940000000     3.082000000    -1.025000000
H    -2.830000000     4.198000000    -1.529000000
O    -0.352000000     4.901000000     2.239000000
H     0.124000000     4.337000000     1.630000000
H    -0.672000000     5.623000000     1.698000000
O     3.238000000     4.456000000     3.057000000
H     3.638000000     4.310000000     2.200000000
H     2.981000000     3.583000000     3.354000000
