161
-3058.32065
C    -0.157000000    -0.481000000     1.345000000
H    -0.194000000    -0.890000000     2.351000000
C     0.565000000     0.619000000     1.091000000
H     1.055000000     1.217000000     1.854000000
C     0.700000000     0.983000000    -0.244000000
C     1.471000000     2.169000000    -0.642000000
H     2.380000000     1.882000000    -1.176000000
H     0.777000000     2.783000000    -1.219000000
H     1.771000000     2.733000000     0.243000000
C     0.093000000     0.274000000    -1.261000000
H     0.277000000     0.524000000    -2.303000000
C    -0.710000000    -0.843000000    -0.961000000
H    -1.184000000    -1.415000000    -1.754000000
C    -0.842000000    -1.271000000     0.329000000
C    -1.706000000    -2.456000000     0.669000000
O    -2.315000000    -3.123000000    -0.142000000
O    -1.979000000    -2.711000000     1.818000000
O     4.581000000     2.738000000    -2.752000000
H     4.811000000     2.378000000    -1.895000000
H     5.193000000     2.321000000    -3.359000000
O    -3.154000000     4.945000000    -0.443000000
H    -2.904000000     5.809000000    -0.771000000
H    -4.109000000     4.978000000    -0.386000000
O    -3.789000000    -6.282000000     3.424000000
H    -3.524000000    -5.390000000     3.199000000
H    -4.201000000    -6.618000000     2.629000000
O     0.761000000    -4.227000000     5.408000000
H     1.358000000    -4.336000000     6.148000000
H    -0.088000000    -4.044000000     5.810000000
O    -1.689000000    -5.940000000     4.927000000
H    -1.738000000    -5.295000000     5.632000000
H    -2.594000000    -6.040000000     4.631000000
O    -5.025000000    -0.602000000    -2.686000000
H    -4.347000000     0.075000000    -2.690000000
H    -4.553000000    -1.414000000    -2.873000000
O    -4.233000000    -0.309000000     2.971000000
H    -3.641000000    -0.333000000     2.219000000
H    -5.085000000    -0.558000000     2.614000000
O    -1.520000000    -7.681000000     0.614000000
H    -1.251000000    -7.518000000     1.518000000
H    -1.811000000    -8.593000000     0.612000000
O    -2.210000000     3.353000000     2.965000000
H    -2.184000000     2.624000000     2.345000000
H    -2.606000000     2.983000000     3.753000000
O    -6.598000000    -3.216000000    -3.639000000
H    -7.258000000    -3.288000000    -2.950000000
H    -5.787000000    -3.007000000    -3.174000000
O     3.112000000     4.596000000     2.835000000
H     2.307000000     4.283000000     3.248000000
H     2.814000000     5.216000000     2.169000000
O     1.902000000    -0.063000000    -3.997000000
H     1.392000000    -0.872000000    -3.949000000
H     2.769000000    -0.307000000    -3.674000000
O    -2.064000000    -6.987000000    -3.553000000
H    -1.114000000    -6.880000000    -3.494000000
H    -2.404000000    -6.092000000    -3.570000000
O    -4.081000000    -3.013000000    -2.612000000
H    -3.603000000    -3.643000000    -3.150000000
H    -3.729000000    -3.135000000    -1.730000000
O     1.915000000    -2.696000000     3.187000000
H     1.195000000    -2.080000000     3.327000000
H     1.615000000    -3.510000000     3.591000000
O     0.082000000     0.264000000     5.193000000
H     0.063000000     0.415000000     6.138000000
H    -0.838000000     0.159000000     4.948000000
O     0.518000000     3.937000000     3.744000000
H    -0.139000000     3.588000000     3.141000000
H     0.178000000     3.729000000     4.615000000
O    -3.117000000     1.149000000     0.535000000
H    -2.521000000     1.882000000     0.381000000
H    -2.612000000     0.374000000     0.288000000
O    -1.604000000     2.138000000    -5.285000000
H    -2.164000000     1.364000000    -5.335000000
H    -1.906000000     2.698000000    -6.001000000
O    -1.312000000    -3.783000000    -2.679000000
H    -1.510000000    -3.660000000    -1.750000000
H    -0.555000000    -4.369000000    -2.686000000
O     4.067000000     7.354000000     0.486000000
H     3.465000000     7.457000000     1.223000000
H     4.363000000     6.446000000     0.544000000
O    -3.266000000    -5.604000000     0.192000000
H    -2.557000000    -6.245000000     0.249000000
H    -2.831000000    -4.757000000     0.291000000
O    -0.481000000    -5.120000000     2.522000000
H    -0.897000000    -4.261000000     2.446000000
H    -0.652000000    -5.390000000     3.424000000
O    -4.506000000    -7.939000000     1.291000000
H    -4.006000000    -7.277000000     0.814000000
H    -4.128000000    -8.773000000     1.011000000
O     3.321000000    -0.972000000    -6.244000000
H     2.902000000    -0.311000000    -5.694000000
H     2.596000000    -1.410000000    -6.689000000
O    -6.014000000    -2.688000000     0.073000000
H    -6.271000000    -3.564000000    -0.215000000
H    -5.903000000    -2.192000000    -0.738000000
O    -0.998000000    -2.294000000    -5.146000000
H    -1.457000000    -2.775000000    -5.836000000
H    -0.998000000    -2.890000000    -4.398000000
O     4.814000000    -2.198000000    -1.374000000
H     5.347000000    -1.804000000    -0.684000000
H     4.033000000    -2.517000000    -0.921000000
O    -2.554000000     0.203000000     4.906000000
H    -3.166000000    -0.035000000     4.210000000
H    -2.762000000     1.116000000     5.107000000
O     1.336000000     2.603000000    -4.943000000
H     1.672000000     1.720000000    -4.792000000
H     0.384000000     2.507000000    -4.907000000
O     2.606000000     0.904000000     5.184000000
H     1.701000000     0.742000000     4.918000000
H     2.541000000     1.593000000     5.846000000
O     3.627000000    -1.773000000     5.338000000
H     3.157000000    -2.265000000     4.665000000
H     3.245000000    -0.896000000     5.305000000
O     3.536000000    -3.163000000     0.894000000
H     3.205000000    -3.962000000     1.303000000
H     3.075000000    -2.455000000     1.344000000
O    -2.295000000    -2.663000000     4.412000000
H    -2.203000000    -1.723000000     4.565000000
H    -2.510000000    -2.735000000     3.482000000
O    -3.163000000     0.151000000    -5.495000000
H    -2.635000000    -0.647000000    -5.477000000
H    -4.022000000    -0.137000000    -5.804000000
O     4.364000000     1.804000000     3.063000000
H     3.762000000     1.392000000     3.683000000
H     4.037000000     2.698000000     2.969000000
O    -4.088000000    -3.726000000     6.388000000
H    -4.777000000    -3.092000000     6.584000000
H    -3.772000000    -3.475000000     5.520000000
O    -4.356000000    -3.950000000     2.284000000
H    -4.941000000    -3.644000000     1.590000000
H    -3.505000000    -3.571000000     2.063000000
O     0.230000000    -5.439000000    -0.312000000
H    -0.348000000    -6.037000000     0.161000000
H     0.201000000    -4.627000000     0.194000000
O     5.239000000     4.748000000    -0.132000000
H     4.852000000     4.305000000    -0.887000000
H     6.163000000     4.847000000    -0.360000000
O     5.445000000    -0.385000000     1.600000000
H     5.259000000     0.361000000     2.171000000
H     5.342000000    -1.150000000     2.166000000
O    -3.395000000     1.581000000    -2.927000000
H    -2.936000000     2.215000000    -2.376000000
H    -3.359000000     1.958000000    -3.806000000
O     2.915000000     4.839000000    -3.981000000
H     2.309000000     4.257000000    -4.439000000
H     3.485000000     4.251000000    -3.486000000
O     5.279000000     1.572000000    -0.319000000
H     5.256000000     0.634000000    -0.128000000
H     5.004000000     1.989000000     0.497000000
O    -6.011000000    -5.405000000    -0.441000000
H    -5.880000000    -5.986000000    -1.190000000
H    -5.209000000    -5.494000000     0.074000000
O    -6.817000000    -1.338000000     2.464000000
H    -6.420000000    -1.637000000     1.645000000
H    -7.237000000    -2.118000000     2.826000000
O     4.851000000    -0.825000000    -3.855000000
H     5.554000000    -0.190000000    -3.989000000
H     4.939000000    -1.091000000    -2.940000000
O    -1.475000000     6.638000000    -1.894000000
H    -1.027000000     5.797000000    -1.810000000
H    -0.778000000     7.260000000    -2.105000000
