161
-3014.94872
C     0.464000000     0.969000000     1.069000000
H     0.961000000     1.587000000     1.813000000
C     1.213000000     0.571000000    -0.085000000
H     2.114000000     1.116000000    -0.354000000
C     0.645000000    -0.320000000    -0.969000000
C     1.342000000    -0.587000000    -2.304000000
H     0.600000000    -0.472000000    -3.097000000
H     2.079000000     0.165000000    -2.591000000
H     1.710000000    -1.615000000    -2.329000000
C    -0.610000000    -0.941000000    -0.701000000
H    -1.036000000    -1.588000000    -1.464000000
C    -1.228000000    -0.689000000     0.536000000
H    -2.211000000    -1.131000000     0.675000000
C    -0.736000000     0.316000000     1.354000000
C    -1.522000000     0.734000000     2.529000000
O    -2.698000000     0.255000000     2.637000000
O    -1.090000000     1.634000000     3.283000000
O    -3.424000000    -2.378000000    -5.537000000
H    -3.875000000    -2.346000000    -4.694000000
H    -2.949000000    -1.548000000    -5.587000000
O    -1.448000000     5.001000000     7.822000000
H    -1.471000000     4.384000000     7.090000000
H    -0.594000000     4.858000000     8.230000000
O     2.406000000     3.505000000    -1.984000000
H     3.047000000     2.823000000    -1.784000000
H     2.101000000     3.296000000    -2.867000000
O     3.453000000     0.121000000     3.188000000
H     3.554000000    -0.445000000     2.423000000
H     2.526000000     0.050000000     3.418000000
O    -1.933000000    -3.274000000    -3.290000000
H    -1.729000000    -2.934000000    -4.161000000
H    -1.105000000    -3.634000000    -2.973000000
O    -7.346000000    -1.919000000     2.464000000
H    -6.416000000    -2.138000000     2.514000000
H    -7.547000000    -1.935000000     1.528000000
O    -0.379000000     6.234000000     4.412000000
H     0.318000000     6.091000000     5.052000000
H    -0.178000000     5.628000000     3.699000000
O     0.059000000     4.168000000    -0.096000000
H     0.064000000     5.123000000    -0.025000000
H     0.793000000     3.968000000    -0.678000000
O    -4.725000000    -0.304000000     1.258000000
H    -5.228000000     0.490000000     1.076000000
H    -3.967000000     0.002000000     1.755000000
O     4.786000000    -0.130000000     0.309000000
H     4.241000000    -0.913000000     0.392000000
H     5.677000000    -0.441000000     0.471000000
O     5.032000000     2.079000000     1.773000000
H     4.452000000     1.668000000     2.414000000
H     4.621000000     1.899000000     0.927000000
O    -2.533000000    -2.121000000     3.682000000
H    -2.406000000    -1.201000000     3.449000000
H    -3.292000000    -2.396000000     3.169000000
O     2.660000000     4.090000000     3.326000000
H     3.032000000     4.951000000     3.136000000
H     1.803000000     4.099000000     2.900000000
O     0.345000000    -4.075000000    -1.611000000
H     1.203000000    -4.484000000    -1.729000000
H     0.412000000    -3.614000000    -0.774000000
O     6.112000000    -1.392000000    -4.592000000
H     5.194000000    -1.243000000    -4.817000000
H     6.494000000    -1.776000000    -5.382000000
O    -0.656000000    -2.446000000    -6.733000000
H    -1.174000000    -1.816000000    -6.233000000
H     0.196000000    -2.457000000    -6.296000000
O     0.673000000    -3.904000000     1.149000000
H     1.105000000    -4.746000000     1.294000000
H     0.479000000    -3.580000000     2.028000000
O     1.907000000     3.610000000    -4.880000000
H     1.747000000     2.868000000    -5.463000000
H     1.082000000     4.096000000    -4.879000000
O     4.169000000     3.545000000     5.634000000
H     4.203000000     2.590000000     5.679000000
H     3.549000000     3.729000000     4.928000000
O    -2.330000000     2.734000000    -0.413000000
H    -2.125000000     1.799000000    -0.391000000
H    -1.538000000     3.145000000    -0.759000000
O    -1.812000000    -4.765000000     2.778000000
H    -1.680000000    -4.629000000     1.840000000
H    -1.794000000    -3.885000000     3.153000000
O    -4.710000000    -2.823000000     2.293000000
H    -5.250000000    -3.394000000     1.747000000
H    -4.434000000    -2.120000000     1.706000000
O    -1.579000000    -0.424000000    -4.926000000
H    -2.007000000    -0.146000000    -4.116000000
H    -1.013000000     0.311000000    -5.162000000
O     7.290000000     2.789000000    -1.807000000
H     7.368000000     2.390000000    -2.673000000
H     6.443000000     2.485000000    -1.479000000
O    -3.115000000     5.575000000     5.034000000
H    -2.265000000     6.000000000     4.914000000
H    -2.920000000     4.638000000     5.007000000
O     3.671000000     5.853000000    -0.875000000
H     3.042000000     5.138000000    -0.969000000
H     4.473000000     5.521000000    -1.278000000
O    -2.524000000    -4.646000000    -0.480000000
H    -1.700000000    -4.918000000    -0.883000000
H    -2.939000000    -4.086000000    -1.136000000
O     1.766000000    -2.951000000    -5.584000000
H     1.489000000    -3.693000000    -5.047000000
H     2.533000000    -2.601000000    -5.132000000
O     0.748000000    -2.784000000     3.651000000
H     1.629000000    -3.155000000     3.600000000
H     0.879000000    -1.900000000     3.993000000
O     2.806000000    -2.006000000     0.599000000
H     2.200000000    -2.730000000     0.762000000
H     2.246000000    -1.285000000     0.312000000
O     2.941000000    -5.907000000    -1.533000000
H     3.565000000    -6.571000000    -1.826000000
H     2.101000000    -6.366000000    -1.499000000
O    -5.605000000     0.634000000    -2.102000000
H    -6.539000000     0.592000000    -1.896000000
H    -5.344000000    -0.279000000    -2.222000000
O     0.813000000    -5.204000000    -4.507000000
H     0.780000000    -5.613000000    -3.642000000
H     0.940000000    -5.934000000    -5.113000000
O     0.978000000     0.127000000     4.370000000
H     0.480000000    -0.188000000     5.125000000
H     0.435000000     0.822000000     3.998000000
O     3.729000000    -0.850000000    -5.818000000
H     4.284000000    -0.320000000    -6.390000000
H     3.213000000    -1.388000000    -6.419000000
O     0.111000000     1.489000000    -6.212000000
H     0.753000000     1.159000000    -6.841000000
H    -0.554000000     1.917000000    -6.751000000
O     4.159000000    -3.902000000    -3.860000000
H     4.196000000    -3.583000000    -2.958000000
H     3.880000000    -4.814000000    -3.781000000
O    -5.406000000    -1.234000000     5.613000000
H    -4.818000000    -0.480000000     5.563000000
H    -5.024000000    -1.790000000     6.293000000
O     4.473000000     1.191000000    -3.899000000
H     4.231000000     0.286000000    -4.098000000
H     4.355000000     1.658000000    -4.726000000
O    -1.582000000     3.077000000     5.628000000
H    -1.506000000     2.214000000     6.035000000
H    -1.583000000     2.900000000     4.688000000
O     4.569000000     1.904000000    -1.318000000
H     4.650000000     1.629000000    -2.231000000
H     4.520000000     1.086000000    -0.824000000
O    -0.760000000    -0.815000000     6.926000000
H    -0.826000000    -1.714000000     6.604000000
H    -0.001000000    -0.824000000     7.509000000
O    -6.655000000     0.836000000     3.635000000
H    -6.923000000     1.189000000     2.787000000
H    -6.745000000    -0.112000000     3.539000000
O    -4.340000000    -1.779000000    -2.957000000
H    -5.010000000    -2.411000000    -2.698000000
H    -3.512000000    -2.241000000    -2.829000000
O    -0.148000000     4.113000000     2.714000000
H    -0.409000000     3.193000000     2.747000000
H    -0.141000000     4.326000000     1.780000000
O    -2.158000000    -5.932000000    -4.042000000
H    -2.105000000    -4.983000000    -3.925000000
H    -1.702000000    -6.292000000    -3.281000000
O    -1.293000000     1.915000000    -3.525000000
H    -2.205000000     2.203000000    -3.566000000
H    -0.806000000     2.595000000    -3.990000000
O    -3.998000000     1.336000000     4.742000000
H    -4.789000000     1.010000000     4.314000000
H    -3.295000000     1.155000000     4.118000000
