161
-3031.41421
C     0.262000000     0.820000000     1.159000000
H     0.593000000     1.529000000     1.914000000
C     0.633000000     1.125000000    -0.119000000
H     1.143000000     2.035000000    -0.423000000
C     0.396000000     0.207000000    -1.128000000
C     0.698000000     0.544000000    -2.578000000
H     1.372000000     1.403000000    -2.557000000
H     1.015000000    -0.360000000    -3.103000000
H    -0.142000000     0.972000000    -3.129000000
C    -0.359000000    -0.900000000    -0.848000000
H    -0.620000000    -1.584000000    -1.651000000
C    -0.788000000    -1.182000000     0.465000000
H    -1.395000000    -2.067000000     0.632000000
C    -0.344000000    -0.393000000     1.522000000
C    -0.716000000    -0.690000000     2.938000000
O    -1.550000000    -1.569000000     3.170000000
O    -0.197000000     0.105000000     3.744000000
O     1.336000000    -2.592000000     6.970000000
H     0.663000000    -2.605000000     6.289000000
H     2.159000000    -2.496000000     6.492000000
O     3.741000000     4.904000000    -3.912000000
H     4.143000000     4.728000000    -4.763000000
H     3.709000000     4.049000000    -3.481000000
O     3.303000000    -0.668000000     0.768000000
H     2.479000000    -0.195000000     0.648000000
H     3.236000000    -1.047000000     1.644000000
O    -1.653000000    -3.509000000    -3.575000000
H    -1.220000000    -3.180000000    -4.362000000
H    -2.222000000    -2.791000000    -3.297000000
O    -0.102000000     4.706000000    -4.287000000
H    -0.399000000     4.660000000    -3.378000000
H     0.051000000     5.638000000    -4.442000000
O    -3.888000000    -1.305000000     1.614000000
H    -3.745000000    -0.510000000     1.101000000
H    -3.172000000    -1.313000000     2.249000000
O     4.572000000     0.354000000    -1.581000000
H     3.933000000     0.119000000    -0.908000000
H     4.271000000    -0.103000000    -2.366000000
O     5.614000000     1.347000000     1.006000000
H     5.201000000     0.521000000     1.258000000
H     5.391000000     1.454000000     0.081000000
O    -0.428000000    -3.218000000     5.091000000
H    -0.642000000    -2.870000000     4.225000000
H    -1.277000000    -3.406000000     5.491000000
O    -5.155000000    -2.681000000    -1.666000000
H    -5.957000000    -2.163000000    -1.734000000
H    -5.192000000    -3.279000000    -2.412000000
O     1.513000000     4.147000000     1.435000000
H     1.578000000     5.077000000     1.218000000
H     2.269000000     3.747000000     1.007000000
O     0.932000000    -3.359000000     0.171000000
H     1.647000000    -3.161000000    -0.434000000
H     0.580000000    -2.503000000     0.414000000
O     1.243000000     0.064000000    -5.733000000
H     0.848000000     0.893000000    -5.462000000
H     1.691000000     0.269000000    -6.554000000
O    -2.509000000    -0.354000000    -6.968000000
H    -2.035000000     0.430000000    -6.691000000
H    -1.829000000    -0.942000000    -7.297000000
O    -0.680000000     2.227000000    -6.613000000
H     0.071000000     2.703000000    -6.969000000
H    -1.418000000     2.503000000    -7.156000000
O     4.263000000     4.302000000     3.315000000
H     5.024000000     4.874000000     3.213000000
H     3.861000000     4.281000000     2.446000000
O    -2.580000000     4.086000000    -0.293000000
H    -1.918000000     4.372000000    -0.923000000
H    -2.477000000     4.681000000     0.449000000
O    -4.341000000     2.273000000    -4.989000000
H    -3.689000000     2.973000000    -4.942000000
H    -4.106000000     1.779000000    -5.775000000
O    -3.047000000     0.922000000     0.125000000
H    -2.741000000     0.509000000    -0.683000000
H    -2.807000000     1.843000000     0.028000000
O     0.284000000    -5.592000000     3.745000000
H    -0.376000000    -5.721000000     3.064000000
H    -0.061000000    -4.879000000     4.281000000
O    -0.029000000    -6.151000000    -0.340000000
H    -0.639000000    -6.269000000     0.388000000
H     0.352000000    -5.285000000    -0.196000000
O     3.736000000     0.439000000     6.810000000
H     3.659000000     1.256000000     6.317000000
H     2.859000000     0.291000000     7.165000000
O    -3.234000000    -3.689000000     0.101000000
H    -3.758000000    -3.672000000    -0.701000000
H    -3.594000000    -2.982000000     0.637000000
O    -0.190000000    -2.557000000    -5.436000000
H     0.345000000    -1.802000000    -5.190000000
H     0.060000000    -2.743000000    -6.341000000
O    -1.933000000     3.041000000     6.056000000
H    -1.100000000     3.467000000     5.855000000
H    -1.730000000     2.106000000     6.057000000
O    -3.060000000    -0.965000000    -2.454000000
H    -3.955000000    -0.659000000    -2.600000000
H    -3.156000000    -1.710000000    -1.860000000
O     3.484000000    -1.189000000    -3.632000000
H     2.719000000    -1.108000000    -4.202000000
H     3.556000000    -2.128000000    -3.459000000
O     1.198000000    -4.049000000    -2.590000000
H     0.399000000    -3.642000000    -2.924000000
H     0.891000000    -4.678000000    -1.936000000
O    -4.004000000    -5.009000000     3.178000000
H    -3.941000000    -4.496000000     3.983000000
H    -4.860000000    -4.779000000     2.814000000
O     2.451000000    -0.543000000     3.596000000
H     1.559000000    -0.214000000     3.705000000
H     2.680000000    -0.905000000     4.452000000
O     4.476000000     1.064000000    -4.867000000
H     3.679000000     1.518000000    -5.141000000
H     4.168000000     0.360000000    -4.297000000
O     3.690000000    -3.747000000    -4.448000000
H     2.956000000    -4.301000000    -4.182000000
H     4.021000000    -4.155000000    -5.248000000
O    -2.313000000    -1.974000000     7.361000000
H    -2.814000000    -1.301000000     7.823000000
H    -2.494000000    -2.780000000     7.844000000
O    -0.681000000     5.848000000    -1.628000000
H    -0.481000000     6.310000000    -0.814000000
H    -0.247000000     6.364000000    -2.308000000
O     0.751000000     2.220000000     5.395000000
H     0.993000000     1.660000000     6.133000000
H     0.421000000     1.614000000     4.732000000
O     5.396000000     3.032000000    -1.853000000
H     6.246000000     3.029000000    -2.294000000
H     5.165000000     2.106000000    -1.774000000
O    -1.682000000     0.508000000     5.971000000
H    -2.149000000    -0.314000000     6.117000000
H    -1.423000000     0.476000000     5.050000000
O    -1.813000000    -5.800000000     1.936000000
H    -2.428000000    -5.837000000     2.668000000
H    -2.246000000    -5.246000000     1.286000000
O    -3.163000000    -2.655000000     4.844000000
H    -2.581000000    -2.255000000     4.199000000
H    -2.792000000    -2.404000000     5.690000000
O    -2.845000000     1.782000000     3.076000000
H    -2.129000000     2.413000000     2.999000000
H    -2.813000000     1.283000000     2.259000000
O    -0.310000000     3.993000000     3.400000000
H     0.315000000     3.596000000     4.007000000
H     0.159000000     4.037000000     2.567000000
O     1.926000000     2.784000000    -5.163000000
H     1.369000000     3.012000000    -5.908000000
H     2.006000000     3.598000000    -4.666000000
O     4.195000000     4.204000000     0.161000000
H     4.560000000     3.979000000    -0.695000000
H     3.864000000     5.096000000     0.053000000
O     0.530000000     0.345000000     7.356000000
H     0.556000000    -0.573000000     7.625000000
H    -0.291000000     0.429000000     6.870000000
O    -1.725000000    -6.356000000    -2.691000000
H    -1.916000000    -5.446000000    -2.919000000
H    -1.253000000    -6.301000000    -1.860000000
O    -2.524000000     4.419000000    -5.125000000
H    -1.610000000     4.323000000    -4.857000000
H    -2.492000000     5.008000000    -5.879000000
O    -5.740000000    -3.393000000     5.987000000
H    -4.819000000    -3.379000000     5.728000000
H    -6.021000000    -2.480000000     5.921000000
O    -4.393000000    -0.240000000     4.435000000
H    -3.766000000    -0.934000000     4.231000000
H    -3.929000000     0.571000000     4.226000000
