161
-3029.53509
C     0.902000000     0.722000000     1.014000000
H     1.642000000     1.013000000     1.755000000
C     1.364000000     0.107000000    -0.177000000
H     2.409000000     0.136000000    -0.474000000
C     0.436000000    -0.450000000    -1.078000000
C     0.820000000    -1.092000000    -2.325000000
H     0.097000000    -1.844000000    -2.649000000
H     0.854000000    -0.358000000    -3.133000000
H     1.798000000    -1.551000000    -2.166000000
C    -0.974000000    -0.375000000    -0.841000000
H    -1.729000000    -0.767000000    -1.517000000
C    -1.399000000     0.093000000     0.416000000
H    -2.472000000     0.056000000     0.590000000
C    -0.488000000     0.699000000     1.320000000
C    -0.952000000     1.148000000     2.733000000
O    -2.183000000     1.065000000     2.958000000
O    -0.121000000     1.400000000     3.572000000
O     0.659000000    -3.633000000    -4.531000000
H     1.422000000    -3.923000000    -5.031000000
H     0.745000000    -2.680000000    -4.493000000
O    -1.113000000     0.580000000     6.060000000
H    -1.165000000    -0.376000000     6.078000000
H    -0.795000000     0.786000000     5.181000000
O     1.229000000     2.577000000    -5.012000000
H     1.088000000     3.521000000    -5.076000000
H     2.181000000     2.474000000    -5.038000000
O    -1.996000000    -0.982000000    -4.953000000
H    -2.273000000    -1.667000000    -4.345000000
H    -1.529000000    -1.451000000    -5.645000000
O    -0.943000000    -5.656000000    -5.373000000
H    -0.602000000    -6.438000000    -4.939000000
H    -0.312000000    -4.969000000    -5.160000000
O    -1.251000000    -2.394000000    -7.259000000
H    -1.567000000    -3.028000000    -7.903000000
H    -0.312000000    -2.326000000    -7.430000000
O    -5.062000000     4.436000000     1.202000000
H    -5.877000000     4.445000000     0.700000000
H    -5.343000000     4.459000000     2.116000000
O     2.386000000     0.848000000     4.271000000
H     1.509000000     1.162000000     4.050000000
H     2.417000000    -0.043000000     3.923000000
O    -4.456000000    -1.590000000    -2.216000000
H    -3.629000000    -1.884000000    -2.601000000
H    -5.043000000    -1.483000000    -2.964000000
O    -3.588000000     3.228000000     4.052000000
H    -4.275000000     2.786000000     4.552000000
H    -3.064000000     2.516000000     3.684000000
O    -4.705000000     0.474000000     2.279000000
H    -5.255000000     1.097000000     2.753000000
H    -3.810000000     0.706000000     2.529000000
O    -0.406000000    -4.914000000     0.276000000
H    -1.335000000    -5.096000000     0.417000000
H    -0.326000000    -4.800000000    -0.671000000
O     0.923000000     0.150000000    -6.198000000
H     1.736000000    -0.339000000    -6.071000000
H     1.013000000     0.914000000    -5.628000000
O    -3.021000000    -4.911000000     0.967000000
H    -3.548000000    -4.114000000     0.917000000
H    -3.616000000    -5.609000000     0.692000000
O     0.223000000     4.190000000    -1.803000000
H    -0.391000000     3.570000000    -1.408000000
H    -0.158000000     5.050000000    -1.624000000
O    -0.326000000    -2.383000000     1.806000000
H    -0.532000000    -1.692000000     1.176000000
H    -0.576000000    -3.193000000     1.362000000
O     0.070000000     5.942000000     1.962000000
H    -0.384000000     5.322000000     2.533000000
H     0.976000000     5.632000000     1.945000000
O     5.930000000    -1.751000000    -4.577000000
H     5.982000000    -0.820000000    -4.792000000
H     6.187000000    -2.198000000    -5.384000000
O    -0.215000000    -2.259000000     7.089000000
H     0.609000000    -1.933000000     6.727000000
H    -0.206000000    -3.197000000     6.900000000
O     4.025000000    -3.652000000     3.342000000
H     3.607000000    -3.383000000     2.524000000
H     4.918000000    -3.313000000     3.277000000
O     5.063000000     0.017000000    -2.398000000
H     4.891000000    -0.921000000    -2.319000000
H     5.956000000     0.070000000    -2.738000000
O    -2.691000000    -1.637000000     3.897000000
H    -1.795000000    -1.969000000     3.842000000
H    -2.610000000    -0.699000000     3.728000000
O     4.011000000     3.052000000     3.397000000
H     3.370000000     2.343000000     3.449000000
H     4.859000000     2.613000000     3.458000000
O     2.694000000    -2.869000000     1.049000000
H     2.061000000    -2.151000000     1.069000000
H     2.354000000    -3.469000000     0.385000000
O     5.434000000    -4.458000000    -0.563000000
H     4.605000000    -4.326000000    -1.024000000
H     5.304000000    -5.261000000    -0.060000000
O     2.754000000    -4.242000000    -1.684000000
H     2.792000000    -3.677000000    -2.455000000
H     2.599000000    -5.119000000    -2.036000000
O     2.742000000     4.758000000     1.728000000
H     3.059000000     4.111000000     2.358000000
H     3.103000000     5.589000000     2.036000000
O    -2.679000000    -3.336000000    -3.408000000
H    -3.320000000    -3.837000000    -3.913000000
H    -2.149000000    -4.000000000    -2.968000000
O    -3.429000000     3.032000000    -2.844000000
H    -2.753000000     2.541000000    -3.313000000
H    -4.250000000     2.754000000    -3.249000000
O     1.679000000    -1.953000000     3.732000000
H     1.127000000    -2.180000000     2.983000000
H     2.476000000    -2.468000000     3.606000000
O     3.549000000    -2.750000000    -4.070000000
H     4.413000000    -2.342000000    -4.009000000
H     3.314000000    -2.676000000    -4.995000000
O     3.881000000     2.387000000    -3.378000000
H     3.462000000     2.781000000    -2.613000000
H     4.083000000     1.492000000    -3.107000000
O    -6.145000000     1.961000000     4.220000000
H    -6.429000000     1.580000000     5.051000000
H    -6.935000000     1.976000000     3.681000000
O    -0.475000000    -4.995000000    -2.417000000
H    -0.430000000    -5.912000000    -2.688000000
H     0.063000000    -4.529000000    -3.057000000
O     3.402000000    -1.209000000    -6.956000000
H     4.278000000    -0.828000000    -7.014000000
H     3.260000000    -1.615000000    -7.811000000
O     6.138000000     1.359000000     0.048000000
H     5.626000000     0.945000000    -0.646000000
H     5.997000000     2.298000000    -0.077000000
O     4.290000000     1.440000000     6.004000000
H     4.978000000     0.956000000     5.548000000
H     3.501000000     1.278000000     5.486000000
O    -3.136000000     5.677000000     3.044000000
H    -3.719000000     5.726000000     2.287000000
H    -3.480000000     4.951000000     3.565000000
O    -0.468000000     3.835000000     4.654000000
H    -0.242000000     2.968000000     4.318000000
H    -1.382000000     3.961000000     4.397000000
O     6.207000000     3.712000000    -1.228000000
H     6.365000000     4.579000000    -1.603000000
H     5.261000000     3.589000000    -1.299000000
O    -4.158000000    -2.262000000     1.833000000
H    -4.345000000    -1.339000000     1.660000000
H    -3.792000000    -2.270000000     2.717000000
O    -1.446000000     1.890000000    -5.012000000
H    -1.348000000     0.942000000    -4.922000000
H    -0.549000000     2.223000000    -5.030000000
O    -0.899000000     5.074000000     6.990000000
H    -0.688000000     4.789000000     6.101000000
H    -0.451000000     4.445000000     7.556000000
O     3.036000000     4.070000000    -1.250000000
H     2.135000000     3.749000000    -1.278000000
H     3.211000000     4.212000000    -0.320000000
O    -2.655000000     4.419000000    -0.580000000
H    -3.202000000     4.337000000     0.201000000
H    -3.128000000     3.934000000    -1.256000000
O    -5.715000000    -0.294000000    -0.117000000
H    -5.347000000     0.158000000     0.642000000
H    -5.043000000    -0.211000000    -0.794000000
O    -5.965000000    -3.269000000    -0.781000000
H    -5.807000000    -3.973000000    -1.410000000
H    -5.473000000    -2.524000000    -1.126000000
O    -2.237000000     1.799000000     8.264000000
H    -1.572000000     2.217000000     8.810000000
H    -1.743000000     1.402000000     7.546000000
