161
-3052.43882
C     0.796000000     0.922000000     0.911000000
H     1.234000000     1.779000000     1.416000000
C     1.244000000     0.438000000    -0.335000000
H     2.116000000     0.854000000    -0.835000000
C     0.471000000    -0.475000000    -1.067000000
C     0.820000000    -1.040000000    -2.430000000
H     0.538000000    -0.222000000    -3.095000000
H     1.901000000    -1.194000000    -2.459000000
H     0.265000000    -1.937000000    -2.713000000
C    -0.749000000    -0.959000000    -0.461000000
H    -1.309000000    -1.707000000    -1.016000000
C    -1.208000000    -0.446000000     0.783000000
H    -2.068000000    -0.927000000     1.241000000
C    -0.457000000     0.561000000     1.409000000
C    -1.035000000     1.253000000     2.580000000
O    -2.264000000     1.128000000     2.814000000
O    -0.298000000     1.970000000     3.263000000
O    -0.350000000     2.447000000    -3.832000000
H    -1.169000000     2.647000000    -4.284000000
H    -0.584000000     2.436000000    -2.904000000
O     1.012000000    -5.320000000    -1.064000000
H     0.061000000    -5.297000000    -0.958000000
H     1.316000000    -4.497000000    -0.681000000
O     2.825000000    -3.189000000     0.128000000
H     3.362000000    -2.443000000    -0.141000000
H     3.448000000    -3.807000000     0.509000000
O     1.137000000     1.976000000     5.403000000
H     0.490000000     2.130000000     4.714000000
H     1.376000000     1.055000000     5.306000000
O    -4.374000000     4.101000000     1.084000000
H    -4.278000000     3.216000000     0.732000000
H    -3.753000000     4.138000000     1.812000000
O    -2.732000000     3.725000000     3.529000000
H    -2.152000000     3.965000000     4.251000000
H    -2.388000000     2.889000000     3.213000000
O     2.030000000     5.198000000    -0.920000000
H     2.442000000     4.538000000    -1.477000000
H     2.759000000     5.729000000    -0.599000000
O     4.254000000    -0.998000000    -0.205000000
H     4.315000000    -0.594000000    -1.071000000
H     3.876000000    -0.316000000     0.350000000
O    -1.858000000    -1.869000000     5.533000000
H    -1.218000000    -2.377000000     5.035000000
H    -2.706000000    -2.225000000     5.266000000
O     2.294000000     1.772000000    -4.161000000
H     1.382000000     1.918000000    -3.910000000
H     2.289000000     1.816000000    -5.117000000
O    -4.676000000    -5.034000000     0.264000000
H    -4.245000000    -4.569000000    -0.453000000
H    -5.401000000    -5.499000000    -0.154000000
O    -1.326000000     2.668000000    -1.273000000
H    -0.674000000     2.272000000    -0.695000000
H    -2.010000000     2.004000000    -1.354000000
O     1.176000000    -2.136000000     2.014000000
H     0.847000000    -1.325000000     1.626000000
H     1.619000000    -2.584000000     1.294000000
O    -1.713000000    -6.503000000    -0.889000000
H    -1.706000000    -7.283000000    -1.443000000
H    -2.246000000    -5.871000000    -1.372000000
O    -3.975000000     3.289000000     6.489000000
H    -4.585000000     3.014000000     7.173000000
H    -3.253000000     2.663000000     6.546000000
O     3.816000000     1.109000000     6.062000000
H     3.037000000     1.575000000     5.761000000
H     4.547000000     1.672000000     5.807000000
O    -1.993000000    -0.120000000    -5.228000000
H    -1.080000000    -0.216000000    -4.959000000
H    -2.069000000     0.796000000    -5.497000000
O    -2.062000000     1.162000000     5.525000000
H    -2.319000000     0.263000000     5.730000000
H    -1.924000000     1.162000000     4.578000000
O     2.062000000     1.483000000    -6.926000000
H     2.429000000     2.286000000    -7.295000000
H     2.069000000     0.860000000    -7.652000000
O    -3.586000000     1.521000000     0.198000000
H    -4.257000000     0.840000000     0.244000000
H    -3.166000000     1.501000000     1.058000000
O     0.851000000    -1.085000000     6.057000000
H    -0.080000000    -1.210000000     6.239000000
H     0.944000000    -1.300000000     5.128000000
O    -2.402000000    -3.648000000     0.970000000
H    -3.247000000    -4.087000000     1.067000000
H    -1.757000000    -4.313000000     1.213000000
O    -0.994000000     5.015000000     5.078000000
H    -0.408000000     4.695000000     5.764000000
H    -0.424000000     5.509000000     4.487000000
O     0.762000000     4.407000000     2.919000000
H     0.449000000     3.535000000     3.161000000
H     0.164000000     4.694000000     2.229000000
O    -3.951000000    -2.732000000     3.613000000
H    -3.436000000    -3.076000000     2.883000000
H    -4.635000000    -3.387000000     3.753000000
O     2.917000000    -4.622000000    -3.878000000
H     2.612000000    -5.287000000    -4.496000000
H     3.350000000    -5.119000000    -3.185000000
O     3.576000000     3.798000000     2.836000000
H     3.665000000     3.096000000     2.191000000
H     2.644000000     3.807000000     3.053000000
O    -3.061000000    -4.372000000    -1.970000000
H    -2.712000000    -3.757000000    -1.326000000
H    -3.242000000    -3.834000000    -2.741000000
O    -0.735000000    -3.684000000     3.380000000
H    -0.224000000    -3.241000000     2.702000000
H    -0.776000000    -4.596000000     3.091000000
O     3.271000000    -2.010000000    -4.902000000
H     3.402000000    -2.491000000    -5.720000000
H     2.730000000    -2.591000000    -4.367000000
O     4.177000000    -0.073000000    -2.668000000
H     3.900000000     0.721000000    -3.125000000
H     4.026000000    -0.777000000    -3.298000000
O     6.677000000    -1.510000000    -2.902000000
H     5.824000000    -1.083000000    -2.825000000
H     7.123000000    -1.032000000    -3.601000000
O     0.361000000    -5.221000000    -4.997000000
H     0.332000000    -6.134000000    -4.709000000
H     0.780000000    -4.755000000    -4.273000000
O     0.563000000    -0.747000000    -6.113000000
H     0.994000000     0.038000000    -6.453000000
H     1.168000000    -1.086000000    -5.453000000
O    -4.613000000    -0.231000000     6.658000000
H    -4.727000000     0.540000000     7.214000000
H    -4.676000000     0.106000000     5.765000000
O    -1.388000000     2.275000000     8.053000000
H    -1.250000000     2.026000000     7.139000000
H    -1.415000000     1.444000000     8.527000000
O    -5.486000000     3.380000000     4.412000000
H    -5.026000000     3.233000000     5.239000000
H    -4.820000000     3.742000000     3.829000000
O     4.087000000     2.327000000     0.616000000
H     4.224000000     3.006000000    -0.045000000
H     4.923000000     1.863000000     0.660000000
O     6.122000000     3.661000000    -1.519000000
H     6.495000000     4.539000000    -1.592000000
H     5.316000000     3.699000000    -2.033000000
O    -6.883000000     1.245000000     3.007000000
H    -6.170000000     0.609000000     3.054000000
H    -6.522000000     2.040000000     3.400000000
O    -5.802000000    -0.475000000     0.332000000
H    -5.702000000    -0.524000000     1.283000000
H    -5.980000000    -1.377000000     0.064000000
O    -2.983000000    -2.074000000    -3.550000000
H    -3.759000000    -1.685000000    -3.146000000
H    -2.693000000    -1.421000000    -4.188000000
O     0.915000000     4.250000000     6.843000000
H     1.814000000     4.460000000     7.097000000
H     0.977000000     3.385000000     6.437000000
O     3.878000000     3.661000000    -3.290000000
H     3.907000000     4.038000000    -4.170000000
H     3.419000000     2.829000000    -3.401000000
O    -0.375000000     5.327000000     0.513000000
H     0.558000000     5.358000000     0.303000000
H    -0.731000000     4.660000000    -0.073000000
O    -4.916000000    -0.695000000    -2.470000000
H    -5.055000000    -0.626000000    -1.525000000
H    -5.760000000    -0.460000000    -2.854000000
O    -1.927000000    -2.302000000    -7.281000000
H    -1.936000000    -1.829000000    -6.449000000
H    -2.846000000    -2.329000000    -7.550000000
O    -4.580000000    -0.205000000     3.337000000
H    -3.679000000     0.000000000     3.090000000
H    -4.571000000    -1.146000000     3.516000000
