161
-3049.04558
C     0.693000000     1.301000000    -0.218000000
H     1.058000000     2.324000000    -0.177000000
C     0.643000000     0.613000000     1.011000000
H     1.052000000     1.024000000     1.930000000
C    -0.006000000    -0.625000000     1.070000000
C    -0.025000000    -1.445000000     2.324000000
H     0.936000000    -1.807000000     2.696000000
H    -0.437000000    -0.850000000     3.142000000
H    -0.720000000    -2.281000000     2.226000000
C    -0.658000000    -1.116000000    -0.037000000
H    -1.226000000    -2.041000000    -0.088000000
C    -0.682000000    -0.442000000    -1.263000000
H    -1.094000000    -0.913000000    -2.152000000
C     0.060000000     0.816000000    -1.383000000
C     0.142000000     1.579000000    -2.702000000
O    -0.457000000     1.191000000    -3.678000000
O     0.716000000     2.672000000    -2.701000000
O     1.733000000    -3.915000000     0.334000000
H     2.419000000    -3.410000000     0.771000000
H     1.424000000    -3.341000000    -0.367000000
O     3.086000000     2.415000000    -5.689000000
H     2.699000000     3.180000000    -5.265000000
H     2.335000000     1.885000000    -5.958000000
O     1.799000000    -2.729000000    -2.024000000
H     2.275000000    -3.549000000    -2.158000000
H     1.011000000    -2.819000000    -2.559000000
O     1.845000000    -2.472000000     5.573000000
H     1.053000000    -2.426000000     6.110000000
H     2.502000000    -1.989000000     6.074000000
O    -1.677000000    -5.819000000    -0.670000000
H    -0.870000000    -6.326000000    -0.593000000
H    -1.758000000    -5.369000000     0.171000000
O    -3.909000000    -3.642000000    -1.317000000
H    -4.666000000    -4.208000000    -1.471000000
H    -3.731000000    -3.731000000    -0.381000000
O    -2.539000000     1.610000000    -0.107000000
H    -1.756000000     1.061000000    -0.142000000
H    -3.247000000     1.004000000     0.115000000
O    -5.285000000     1.942000000    -3.265000000
H    -4.448000000     2.124000000    -2.837000000
H    -5.943000000     2.291000000    -2.664000000
O     4.104000000    -3.123000000     1.761000000
H     4.356000000    -3.705000000     2.478000000
H     4.889000000    -2.605000000     1.585000000
O    -3.919000000    -3.813000000     1.381000000
H    -3.562000000    -4.414000000     2.035000000
H    -4.868000000    -3.901000000     1.468000000
O     0.690000000     4.978000000     3.110000000
H     0.069000000     5.518000000     3.599000000
H     0.170000000     4.236000000     2.801000000
O     3.124000000     3.798000000    -2.831000000
H     2.408000000     3.170000000    -2.736000000
H     2.689000000     4.639000000    -2.967000000
O    -3.797000000    -1.392000000    -2.751000000
H    -3.718000000    -2.272000000    -2.382000000
H    -4.265000000    -0.893000000    -2.082000000
O     3.112000000    -0.311000000    -1.362000000
H     3.254000000     0.129000000    -2.200000000
H     2.462000000    -0.987000000    -1.554000000
O    -4.267000000    -1.075000000     2.456000000
H    -4.187000000    -2.027000000     2.395000000
H    -3.756000000    -0.840000000     3.231000000
O    -2.603000000     0.140000000    -7.540000000
H    -1.888000000     0.633000000    -7.943000000
H    -2.341000000     0.043000000    -6.625000000
O    -2.625000000     1.848000000     4.188000000
H    -2.561000000     2.749000000     4.505000000
H    -2.838000000     1.335000000     4.967000000
O    -1.445000000    -3.790000000    -5.616000000
H    -1.523000000    -3.596000000    -6.550000000
H    -1.203000000    -2.954000000    -5.217000000
O     0.397000000     2.149000000    -8.076000000
H    -0.162000000     2.829000000    -7.701000000
H     0.102000000     2.069000000    -8.983000000
O    -0.330000000    -5.017000000     1.924000000
H     0.311000000    -4.792000000     2.598000000
H     0.190000000    -5.130000000     1.128000000
O    -5.490000000    -1.676000000    -4.656000000
H    -5.814000000    -0.777000000    -4.700000000
H    -4.883000000    -1.675000000    -3.915000000
O     0.225000000    -1.219000000    -7.393000000
H     0.602000000    -0.495000000    -6.892000000
H     0.633000000    -2.003000000    -7.025000000
O     1.531000000     0.207000000    -5.378000000
H     0.861000000     0.565000000    -4.795000000
H     1.972000000    -0.461000000    -4.853000000
O     0.222000000    -7.217000000     3.830000000
H    -0.027000000    -6.307000000     3.670000000
H     0.745000000    -7.185000000     4.631000000
O     5.592000000     2.448000000    -1.993000000
H     5.477000000     1.621000000    -1.525000000
H     4.714000000     2.827000000    -2.028000000
O    -2.536000000    -0.046000000    -4.830000000
H    -1.802000000     0.296000000    -4.320000000
H    -3.113000000    -0.447000000    -4.180000000
O     4.596000000     5.896000000     1.186000000
H     3.705000000     5.728000000     0.879000000
H     5.109000000     5.162000000     0.848000000
O     1.571000000    -4.602000000     3.857000000
H     2.474000000    -4.890000000     3.724000000
H     1.643000000    -3.856000000     4.453000000
O     3.696000000     0.849000000     1.120000000
H     3.141000000     0.514000000     0.415000000
H     3.737000000     0.132000000     1.752000000
O     3.663000000    -0.351000000     4.933000000
H     3.257000000     0.516000000     4.953000000
H     2.950000000    -0.945000000     4.699000000
O    -3.655000000     2.635000000    -6.214000000
H    -3.837000000     1.874000000    -5.662000000
H    -2.705000000     2.743000000    -6.168000000
O     2.506000000     2.308000000     5.147000000
H     3.151000000     2.938000000     5.466000000
H     2.419000000     2.506000000     4.215000000
O    -1.955000000     5.383000000    -0.277000000
H    -2.645000000     5.076000000    -0.865000000
H    -1.155000000     4.985000000    -0.619000000
O    -1.186000000     3.039000000     2.231000000
H    -1.424000000     2.400000000     2.902000000
H    -1.512000000     2.661000000     1.414000000
O     1.740000000     6.067000000    -3.554000000
H     1.034000000     6.709000000    -3.485000000
H     2.539000000     6.592000000    -3.596000000
O    -2.834000000     3.091000000    -2.363000000
H    -2.194000000     2.501000000    -2.762000000
H    -2.864000000     2.826000000    -1.444000000
O    -1.224000000     3.053000000    -5.460000000
H    -0.927000000     2.566000000    -4.691000000
H    -0.550000000     3.718000000    -5.598000000
O     4.320000000     0.432000000    -3.716000000
H     4.044000000     0.799000000    -4.556000000
H     5.275000000     0.499000000    -3.728000000
O     0.356000000     5.335000000    -6.091000000
H     0.852000000     5.624000000    -5.325000000
H     0.745000000     5.815000000    -6.822000000
O    -0.666000000    -3.806000000    -2.719000000
H    -1.057000000    -4.022000000    -3.565000000
H    -1.368000000    -3.952000000    -2.085000000
O    -4.126000000     5.050000000    -3.737000000
H    -4.567000000     4.554000000    -4.427000000
H    -3.557000000     4.410000000    -3.309000000
O    -4.877000000    -0.286000000    -0.158000000
H    -5.307000000     0.431000000     0.309000000
H    -4.676000000    -0.928000000     0.523000000
O    -0.002000000    -0.023000000     6.191000000
H     0.258000000    -0.598000000     6.911000000
H     0.213000000     0.857000000     6.498000000
O    -2.613000000    -6.335000000     2.251000000
H    -1.836000000    -5.787000000     2.135000000
H    -2.400000000    -7.151000000     1.799000000
O    -2.689000000     0.432000000     6.362000000
H    -1.861000000     0.030000000     6.100000000
H    -3.294000000    -0.304000000     6.455000000
O     0.497000000     4.847000000    -1.308000000
H     0.842000000     5.399000000    -2.010000000
H     0.618000000     3.952000000    -1.625000000
O     1.965000000     5.467000000     0.793000000
H     1.390000000     5.218000000     0.069000000
H     1.476000000     5.227000000     1.580000000
O     3.039000000     3.276000000     2.505000000
H     2.675000000     3.664000000     1.709000000
H     3.361000000     2.419000000     2.228000000
