161
-3023.85341
C     0.673000000     1.022000000     0.936000000
H     1.090000000     1.677000000     1.697000000
C     1.160000000     0.649000000    -0.296000000
H     2.142000000     0.998000000    -0.604000000
C     0.468000000    -0.300000000    -1.113000000
C     1.093000000    -0.918000000    -2.318000000
H     0.441000000    -1.644000000    -2.809000000
H     1.383000000    -0.150000000    -3.037000000
H     2.014000000    -1.440000000    -2.048000000
C    -0.772000000    -0.687000000    -0.752000000
H    -1.397000000    -1.355000000    -1.339000000
C    -1.396000000    -0.223000000     0.420000000
H    -2.316000000    -0.743000000     0.678000000
C    -0.605000000     0.502000000     1.368000000
C    -1.175000000     0.775000000     2.741000000
O    -2.281000000     0.387000000     2.953000000
O    -0.519000000     1.456000000     3.523000000
O    -2.693000000    -4.605000000    -5.943000000
H    -1.894000000    -4.229000000    -5.573000000
H    -3.017000000    -3.935000000    -6.545000000
O    -1.979000000     2.219000000     7.040000000
H    -2.914000000     2.171000000     7.239000000
H    -1.923000000     2.826000000     6.302000000
O     0.223000000     5.177000000     1.435000000
H     0.441000000     5.577000000     0.593000000
H    -0.703000000     5.382000000     1.565000000
O    -2.589000000     3.170000000     4.360000000
H    -3.414000000     2.697000000     4.255000000
H    -1.970000000     2.700000000     3.801000000
O    -4.247000000     3.988000000     1.153000000
H    -3.643000000     4.651000000     1.486000000
H    -4.041000000     3.201000000     1.658000000
O     4.610000000    -2.926000000    -0.216000000
H     4.718000000    -3.238000000    -1.115000000
H     5.041000000    -2.071000000    -0.206000000
O     5.817000000    -0.489000000    -0.471000000
H     5.548000000     0.411000000    -0.650000000
H     6.027000000    -0.496000000     0.463000000
O    -0.034000000    -2.325000000     6.755000000
H    -0.850000000    -1.870000000     6.545000000
H     0.415000000    -2.411000000     5.915000000
O    -4.332000000    -2.957000000     3.544000000
H    -4.325000000    -3.783000000     3.059000000
H    -3.435000000    -2.630000000     3.472000000
O     3.815000000     0.673000000     6.358000000
H     3.320000000     0.879000000     5.565000000
H     4.235000000    -0.165000000     6.168000000
O     0.757000000     2.478000000    -4.217000000
H     0.839000000     1.875000000    -4.956000000
H     0.129000000     2.055000000    -3.631000000
O    -0.304000000    -5.959000000    -3.503000000
H    -0.124000000    -5.725000000    -4.413000000
H     0.392000000    -6.575000000    -3.272000000
O    -1.956000000     2.684000000    -1.039000000
H    -1.365000000     2.209000000    -0.454000000
H    -2.826000000     2.546000000    -0.664000000
O     1.870000000     0.745000000     4.207000000
H     1.911000000    -0.122000000     3.802000000
H     0.975000000     1.042000000     4.048000000
O    -1.436000000    -4.698000000    -1.423000000
H    -1.113000000    -5.203000000    -2.169000000
H    -2.025000000    -4.049000000    -1.810000000
O     4.011000000     2.060000000     2.439000000
H     4.076000000     2.723000000     3.126000000
H     3.285000000     1.500000000     2.716000000
O    -1.368000000    -0.205000000    -5.822000000
H    -0.640000000     0.368000000    -6.062000000
H    -1.989000000     0.370000000    -5.376000000
O    -4.081000000     1.025000000    -0.349000000
H    -4.044000000     0.610000000    -1.210000000
H    -4.648000000     0.454000000     0.169000000
O    -1.691000000    -0.434000000     5.521000000
H    -1.932000000    -0.432000000     4.594000000
H    -1.276000000     0.417000000     5.662000000
O     2.404000000    -2.382000000     1.136000000
H     3.125000000    -2.665000000     0.574000000
H     1.870000000    -1.820000000     0.575000000
O     0.709000000     3.761000000     3.712000000
H     0.336000000     2.894000000     3.550000000
H     0.480000000     4.269000000     2.934000000
O     1.642000000    -3.024000000     3.800000000
H     2.559000000    -2.749000000     3.772000000
H     1.361000000    -3.012000000     2.885000000
O    -2.405000000    -5.742000000     0.913000000
H    -2.214000000    -6.666000000     0.752000000
H    -2.156000000    -5.301000000     0.101000000
O     3.439000000     4.427000000     0.611000000
H     2.512000000     4.339000000     0.834000000
H     3.671000000     3.587000000     0.215000000
O     0.673000000     5.764000000     6.018000000
H    -0.165000000     6.227000000     6.009000000
H     0.656000000     5.224000000     5.227000000
O    -1.207000000    -2.559000000    -4.649000000
H    -1.260000000    -1.646000000    -4.930000000
H    -0.323000000    -2.649000000    -4.291000000
O     5.062000000    -4.528000000    -2.387000000
H     5.680000000    -4.960000000    -2.978000000
H     4.469000000    -5.226000000    -2.109000000
O     4.487000000    -1.797000000    -3.569000000
H     5.300000000    -1.311000000    -3.428000000
H     4.764000000    -2.710000000    -3.642000000
O    -3.237000000    -3.220000000    -2.907000000
H    -2.613000000    -2.938000000    -3.576000000
H    -3.960000000    -3.606000000    -3.401000000
O    -3.889000000     5.148000000     5.792000000
H    -3.365000000     4.588000000     5.218000000
H    -4.779000000     5.080000000     5.445000000
O     3.989000000     3.644000000     4.681000000
H     4.332000000     4.529000000     4.799000000
H     3.046000000     3.732000000     4.819000000
O     0.716000000    -2.161000000    -7.367000000
H     0.513000000    -1.278000000    -7.058000000
H     1.414000000    -2.036000000    -8.010000000
O    -3.201000000    -0.819000000     7.942000000
H    -2.617000000    -0.464000000     7.272000000
H    -3.563000000    -0.047000000     8.377000000
O     1.506000000     0.807000000    -6.375000000
H     2.279000000     0.336000000    -6.062000000
H     1.755000000     1.127000000    -7.242000000
O     0.228000000    -5.058000000    -6.144000000
H    -0.255000000    -5.506000000    -6.838000000
H     0.396000000    -4.183000000    -6.494000000
O    -5.503000000    -1.641000000     5.995000000
H    -4.752000000    -1.360000000     6.518000000
H    -5.138000000    -1.826000000     5.130000000
O    -0.127000000     1.282000000     8.678000000
H    -0.818000000     1.530000000     8.064000000
H    -0.416000000     0.444000000     9.038000000
O     5.105000000     1.993000000    -1.152000000
H     4.457000000     1.968000000    -1.855000000
H     5.876000000     2.395000000    -1.551000000
O    -6.284000000    -0.616000000     0.960000000
H    -6.600000000    -1.120000000     1.710000000
H    -6.683000000    -1.040000000     0.201000000
O    -7.039000000    -2.579000000     3.092000000
H    -6.083000000    -2.545000000     3.043000000
H    -7.221000000    -3.081000000     3.886000000
O     0.457000000    -6.463000000     0.173000000
H    -0.254000000    -6.997000000    -0.179000000
H     0.531000000    -5.729000000    -0.438000000
O    -4.021000000    -0.314000000    -2.821000000
H    -3.798000000    -1.204000000    -2.546000000
H    -4.689000000    -0.433000000    -3.496000000
O     3.839000000    -1.116000000    -6.250000000
H     3.800000000    -1.042000000    -5.296000000
H     3.994000000    -2.047000000    -6.412000000
O    -6.308000000     2.816000000     4.429000000
H    -6.155000000     2.149000000     3.760000000
H    -6.804000000     3.499000000     3.978000000
O     3.453000000     2.330000000    -3.324000000
H     3.863000000     2.532000000    -4.165000000
H     2.528000000     2.538000000    -3.452000000
O    -5.676000000    -3.751000000    -0.941000000
H    -5.034000000    -3.730000000    -1.652000000
H    -6.222000000    -4.513000000    -1.135000000
O    -2.066000000     1.390000000    -3.628000000
H    -2.076000000     2.069000000    -2.953000000
H    -2.638000000     0.703000000    -3.284000000
O    -4.774000000     0.801000000     2.769000000
H    -3.834000000     0.631000000     2.712000000
H    -5.182000000     0.003000000     2.432000000
