161
-3058.06229
C    -0.285000000    -1.310000000     0.424000000
H    -0.615000000    -2.267000000     0.820000000
C    -0.925000000    -0.654000000    -0.610000000
H    -1.792000000    -1.108000000    -1.083000000
C    -0.503000000     0.582000000    -0.963000000
C    -1.208000000     1.244000000    -2.128000000
H    -0.983000000     2.313000000    -2.133000000
H    -0.882000000     0.675000000    -3.002000000
H    -2.295000000     1.135000000    -2.111000000
C     0.471000000     1.254000000    -0.189000000
H     0.784000000     2.281000000    -0.360000000
C     1.100000000     0.543000000     0.816000000
H     1.815000000     1.116000000     1.401000000
C     0.700000000    -0.725000000     1.189000000
C     1.342000000    -1.448000000     2.376000000
O     2.536000000    -1.343000000     2.522000000
O     0.733000000    -2.294000000     3.027000000
O    -3.514000000     5.668000000    -2.495000000
H    -2.831000000     5.157000000    -2.930000000
H    -3.039000000     6.233000000    -1.886000000
O    -4.444000000    -4.605000000    -3.743000000
H    -3.798000000    -5.171000000    -4.164000000
H    -3.938000000    -3.856000000    -3.429000000
O    -1.096000000    -3.856000000     7.225000000
H    -1.659000000    -3.086000000     7.312000000
H    -0.455000000    -3.610000000     6.558000000
O    -3.233000000    -0.266000000    -4.839000000
H    -3.502000000     0.611000000    -4.563000000
H    -2.448000000    -0.120000000    -5.367000000
O    -1.435000000     3.965000000    -4.606000000
H    -1.468000000     4.442000000    -5.435000000
H    -0.503000000     3.918000000    -4.393000000
O    -2.578000000     1.995000000     4.393000000
H    -2.350000000     1.795000000     3.485000000
H    -3.499000000     2.254000000     4.357000000
O     3.673000000    -1.529000000     0.162000000
H     3.178000000    -1.643000000     0.973000000
H     3.649000000    -0.586000000    -0.003000000
O     2.916000000     5.548000000     1.623000000
H     3.212000000     5.513000000     2.533000000
H     2.150000000     6.122000000     1.643000000
O    -2.190000000    -1.789000000     3.210000000
H    -1.259000000    -1.903000000     3.017000000
H    -2.275000000    -0.865000000     3.444000000
O    -4.989000000     1.171000000    -1.630000000
H    -4.690000000     0.973000000    -2.517000000
H    -5.837000000     1.598000000    -1.752000000
O    -0.093000000     3.272000000     3.439000000
H     0.488000000     2.537000000     3.634000000
H    -0.924000000     3.036000000     3.851000000
O     5.074000000    -2.529000000     6.610000000
H     5.085000000    -3.465000000     6.410000000
H     4.581000000    -2.136000000     5.890000000
O     3.674000000    -1.272000000     4.831000000
H     2.964000000    -1.193000000     5.468000000
H     3.244000000    -1.181000000     3.980000000
O     5.034000000     2.701000000    -1.348000000
H     5.627000000     3.416000000    -1.580000000
H     5.425000000     2.310000000    -0.567000000
O    -4.013000000    -3.669000000     3.581000000
H    -3.613000000    -4.434000000     3.995000000
H    -3.308000000    -3.023000000     3.540000000
O     1.107000000    -1.336000000    -3.959000000
H     1.935000000    -0.937000000    -4.225000000
H     0.444000000    -0.881000000    -4.478000000
O     3.863000000     6.186000000    -1.055000000
H     3.423000000     5.780000000    -0.308000000
H     3.602000000     5.653000000    -1.806000000
O    -5.553000000    -4.693000000    -1.161000000
H    -5.027000000    -4.818000000    -1.950000000
H    -4.975000000    -4.224000000    -0.559000000
O    -1.030000000     4.726000000    -0.596000000
H    -1.185000000     5.207000000     0.217000000
H    -1.588000000     3.951000000    -0.526000000
O    -3.331000000     3.044000000     0.467000000
H    -3.455000000     3.873000000     0.928000000
H    -3.952000000     3.080000000    -0.260000000
O    -2.097000000     1.077000000     1.732000000
H    -1.379000000     0.680000000     1.240000000
H    -2.595000000     1.567000000     1.077000000
O    -1.534000000    -6.917000000     2.999000000
H    -0.944000000    -6.312000000     2.549000000
H    -2.023000000    -6.365000000     3.609000000
O     1.742000000     1.609000000     5.134000000
H     1.373000000     1.941000000     5.952000000
H     2.502000000     2.167000000     4.970000000
O     1.293000000     3.955000000    -3.965000000
H     2.159000000     3.557000000    -4.045000000
H     1.356000000     4.514000000    -3.191000000
O    -2.450000000    -5.426000000     5.009000000
H    -2.988000000    -5.512000000     5.796000000
H    -1.760000000    -4.810000000     5.256000000
O     6.317000000     1.457000000     0.856000000
H     6.267000000     0.805000000     1.555000000
H     6.110000000     2.287000000     1.287000000
O    -3.684000000    -3.724000000     0.805000000
H    -3.825000000    -2.786000000     0.672000000
H    -3.771000000    -3.847000000     1.750000000
O     4.953000000     3.712000000     1.460000000
H     5.128000000     4.586000000     1.111000000
H     4.079000000     3.778000000     1.846000000
O    -0.400000000     0.620000000    -5.828000000
H    -0.888000000     1.375000000    -5.500000000
H     0.518000000     0.888000000    -5.778000000
O    -2.250000000    -4.279000000    -1.347000000
H    -2.421000000    -4.116000000    -0.420000000
H    -2.584000000    -3.502000000    -1.793000000
O     3.254000000     0.549000000    -1.893000000
H     2.355000000     0.872000000    -1.835000000
H     3.797000000     1.325000000    -1.756000000
O     2.938000000    -4.962000000     0.861000000
H     3.549000000    -4.880000000     0.129000000
H     3.346000000    -4.467000000     1.571000000
O    -3.683000000     2.191000000    -3.810000000
H    -4.514000000     2.609000000    -4.035000000
H    -3.034000000     2.891000000    -3.887000000
O     0.888000000    -3.315000000     5.584000000
H     0.816000000    -2.861000000     4.745000000
H     1.403000000    -4.098000000     5.390000000
O     0.259000000    -3.729000000    -2.593000000
H     0.486000000    -2.839000000    -2.863000000
H    -0.427000000    -3.612000000    -1.936000000
O     3.783000000     3.080000000    -3.960000000
H     4.587000000     3.298000000    -4.432000000
H     4.085000000     2.708000000    -3.131000000
O    -0.947000000     5.703000000     2.214000000
H    -0.183000000     6.253000000     2.041000000
H    -0.583000000     4.893000000     2.570000000
O     0.407000000    -5.060000000     2.569000000
H     1.171000000    -5.088000000     1.993000000
H     0.350000000    -4.145000000     2.847000000
O     1.560000000     4.580000000    -1.193000000
H     0.670000000     4.718000000    -0.868000000
H     1.993000000     4.079000000    -0.502000000
O     4.089000000    -3.773000000     2.934000000
H     4.827000000    -3.740000000     3.543000000
H     3.727000000    -2.887000000     2.947000000
O     3.204000000    -3.613000000    -1.701000000
H     2.336000000    -3.805000000    -2.057000000
H     3.078000000    -2.821000000    -1.177000000
O     2.313000000    -5.517000000     5.156000000
H     2.152000000    -6.308000000     4.642000000
H     2.945000000    -5.018000000     4.638000000
O     1.724000000    -0.931000000     6.863000000
H     0.953000000    -0.569000000     6.428000000
H     1.578000000    -1.877000000     6.862000000
O     2.313000000     1.342000000    -5.554000000
H     2.776000000     1.770000000    -4.834000000
H     2.933000000     1.359000000    -6.282000000
O    -4.505000000    -1.226000000    -0.149000000
H    -5.220000000    -1.251000000     0.487000000
H    -4.378000000    -0.294000000    -0.329000000
O     5.638000000     0.069000000     3.212000000
H     5.488000000     1.009000000     3.313000000
H     5.025000000    -0.339000000     3.823000000
O    -0.757000000    -1.687000000    -7.230000000
H    -0.669000000    -0.788000000    -6.914000000
H    -1.626000000    -1.715000000    -7.631000000
O    -3.465000000    -2.168000000    -2.635000000
H    -3.329000000    -1.562000000    -3.364000000
H    -3.920000000    -1.648000000    -1.973000000
