161
-3020.56962
C    -0.490000000    -1.353000000     0.522000000
H    -0.980000000    -2.260000000     0.867000000
C    -1.133000000    -0.512000000    -0.389000000
H    -2.128000000    -0.891000000    -0.610000000
C    -0.589000000     0.670000000    -0.886000000
C    -1.239000000     1.563000000    -1.914000000
H    -1.675000000     0.812000000    -2.576000000
H    -1.953000000     2.293000000    -1.527000000
H    -0.515000000     2.151000000    -2.481000000
C     0.645000000     1.038000000    -0.429000000
H     1.116000000     1.959000000    -0.764000000
C     1.258000000     0.320000000     0.580000000
H     2.245000000     0.645000000     0.902000000
C     0.673000000    -0.868000000     1.173000000
C     1.404000000    -1.652000000     2.227000000
O     2.581000000    -1.527000000     2.358000000
O     0.782000000    -2.396000000     2.949000000
O    -2.818000000     4.911000000    -1.960000000
H    -2.260000000     5.490000000    -2.479000000
H    -2.283000000     4.679000000    -1.201000000
O    -4.052000000    -2.532000000    -3.987000000
H    -4.083000000    -2.729000000    -4.923000000
H    -4.043000000    -1.575000000    -3.944000000
O     1.734000000     2.572000000     3.757000000
H     2.481000000     3.167000000     3.695000000
H     1.483000000     2.406000000     2.849000000
O    -1.731000000     1.383000000    -5.946000000
H    -2.001000000     1.874000000    -5.169000000
H    -0.775000000     1.439000000    -5.943000000
O     5.195000000     4.229000000    -0.510000000
H     5.064000000     3.281000000    -0.528000000
H     6.145000000     4.340000000    -0.506000000
O    -1.215000000     5.114000000    -5.631000000
H    -1.620000000     4.455000000    -6.195000000
H    -0.464000000     4.666000000    -5.241000000
O    -1.998000000     1.668000000     4.513000000
H    -2.027000000     1.197000000     3.680000000
H    -2.917000000     1.796000000     4.748000000
O     4.693000000    -1.833000000     0.684000000
H     3.942000000    -1.607000000     1.233000000
H     5.439000000    -1.825000000     1.283000000
O     4.050000000     4.226000000     2.359000000
H     4.025000000     3.981000000     1.435000000
H     4.865000000     3.844000000     2.686000000
O    -2.068000000    -1.723000000     3.561000000
H    -1.169000000    -2.049000000     3.514000000
H    -2.064000000    -0.930000000     3.025000000
O    -4.210000000     0.247000000    -2.484000000
H    -3.697000000     1.039000000    -2.646000000
H    -5.110000000     0.500000000    -2.689000000
O     5.860000000    -1.097000000     6.838000000
H     5.193000000    -1.253000000     6.169000000
H     6.123000000    -0.186000000     6.706000000
O     4.342000000    -1.303000000     4.609000000
H     4.029000000    -0.401000000     4.679000000
H     3.864000000    -1.665000000     3.863000000
O     5.281000000     1.095000000     0.061000000
H     6.102000000     0.758000000    -0.297000000
H     5.337000000     0.916000000     1.000000000
O    -2.351000000    -2.838000000     6.133000000
H    -2.703000000    -2.120000000     6.660000000
H    -2.159000000    -2.440000000     5.284000000
O     1.149000000    -1.734000000    -2.107000000
H     0.526000000    -1.223000000    -1.590000000
H     1.968000000    -1.241000000    -2.053000000
O     3.215000000     6.241000000    -1.737000000
H     2.724000000     6.351000000    -0.923000000
H     3.273000000     5.293000000    -1.856000000
O    -0.516000000    -0.029000000     6.520000000
H    -0.953000000     0.377000000     5.771000000
H    -0.090000000    -0.805000000     6.156000000
O    -1.802000000     4.937000000     1.049000000
H    -1.459000000     5.810000000     0.859000000
H    -1.818000000     4.889000000     2.005000000
O    -4.621000000     1.960000000     1.407000000
H    -4.631000000     2.846000000     1.045000000
H    -5.541000000     1.760000000     1.579000000
O    -2.316000000     0.855000000     2.088000000
H    -2.013000000     0.542000000     1.235000000
H    -3.078000000     1.398000000     1.887000000
O    -5.474000000     5.485000000    -1.524000000
H    -4.539000000     5.368000000    -1.689000000
H    -5.635000000     5.011000000    -0.708000000
O     0.039000000    -7.417000000     3.437000000
H     0.257000000    -6.605000000     2.979000000
H    -0.040000000    -7.160000000     4.356000000
O     3.031000000     0.940000000     5.604000000
H     2.883000000     1.320000000     6.470000000
H     2.344000000     1.320000000     5.055000000
O     5.745000000    -2.243000000    -1.751000000
H     5.257000000    -2.100000000    -0.940000000
H     5.077000000    -2.490000000    -2.392000000
O     1.044000000     4.208000000    -3.787000000
H     1.424000000     3.382000000    -3.486000000
H     0.784000000     4.659000000    -2.984000000
O     6.299000000    -1.614000000     2.698000000
H     6.079000000    -1.944000000     3.569000000
H     6.117000000    -0.676000000     2.743000000
O    -3.461000000    -4.194000000     0.863000000
H    -3.741000000    -3.283000000     0.950000000
H    -4.115000000    -4.693000000     1.353000000
O     5.702000000     1.132000000     2.733000000
H     6.494000000     1.469000000     2.315000000
H     5.666000000     1.583000000     3.577000000
O     1.001000000     1.684000000    -5.833000000
H     1.677000000     1.806000000    -6.499000000
H     1.482000000     1.645000000    -5.006000000
O    -4.496000000     0.150000000    -6.263000000
H    -3.665000000    -0.066000000    -6.684000000
H    -4.268000000     0.808000000    -5.606000000
O    -1.146000000    -5.116000000    -0.087000000
H    -1.962000000    -4.756000000     0.260000000
H    -1.218000000    -5.000000000    -1.035000000
O     3.580000000    -0.432000000    -2.180000000
H     4.145000000    -0.132000000    -2.893000000
H     4.101000000    -0.293000000    -1.389000000
O     2.481000000    -6.610000000     1.315000000
H     1.785000000    -6.083000000     1.708000000
H     3.213000000    -6.002000000     1.215000000
O    -3.186000000     2.813000000    -4.008000000
H    -4.135000000     2.936000000    -4.035000000
H    -2.871000000     3.512000000    -3.435000000
O     0.653000000    -2.297000000     5.508000000
H     0.245000000    -3.102000000     5.826000000
H     0.800000000    -2.456000000     4.575000000
O     1.642000000    -4.293000000    -1.193000000
H     1.536000000    -3.390000000    -1.494000000
H     0.813000000    -4.499000000    -0.761000000
O     2.331000000     1.936000000    -3.581000000
H     3.231000000     2.251000000    -3.660000000
H     2.351000000     1.336000000    -2.836000000
O    -0.593000000    -2.975000000    -3.954000000
H    -1.475000000    -3.117000000    -3.610000000
H    -0.239000000    -2.266000000    -3.417000000
O     0.300000000    -4.993000000     2.111000000
H    -0.380000000    -5.024000000     1.438000000
H     0.290000000    -4.087000000     2.419000000
O    -0.135000000     6.562000000    -2.412000000
H     0.097000000     6.388000000    -1.500000000
H     0.538000000     7.170000000    -2.718000000
O    -4.931000000    -2.334000000     3.486000000
H    -4.000000000    -2.130000000     3.394000000
H    -4.960000000    -3.287000000     3.567000000
O     3.748000000    -4.138000000     3.428000000
H     3.839000000    -4.131000000     2.475000000
H     3.014000000    -3.548000000     3.602000000
O     3.959000000    -4.319000000     0.655000000
H     3.063000000    -4.232000000     0.331000000
H     4.378000000    -3.488000000     0.428000000
O     3.169000000    -2.445000000     6.640000000
H     3.635000000    -1.964000000     5.956000000
H     2.266000000    -2.490000000     6.326000000
O    -4.399000000    -1.800000000    -0.532000000
H    -5.246000000    -1.638000000    -0.116000000
H    -4.364000000    -1.174000000    -1.255000000
O    -3.232000000    -4.187000000    -1.908000000
H    -3.513000000    -3.630000000    -1.182000000
H    -3.515000000    -3.719000000    -2.693000000
O    -4.812000000     4.595000000     1.064000000
H    -3.874000000     4.771000000     1.133000000
H    -5.181000000     4.942000000     1.876000000
