161
-3052.22851
C    -1.074000000    -0.386000000    -0.988000000
H    -1.939000000    -0.502000000    -1.636000000
C    -1.262000000     0.428000000     0.154000000
H    -2.257000000     0.788000000     0.402000000
C    -0.158000000     0.725000000     0.996000000
C    -0.340000000     1.550000000     2.204000000
H     0.493000000     1.502000000     2.909000000
H    -0.478000000     2.577000000     1.859000000
H    -1.208000000     1.351000000     2.837000000
C     1.034000000     0.141000000     0.759000000
H     1.873000000     0.288000000     1.435000000
C     1.183000000    -0.696000000    -0.361000000
H     2.188000000    -1.038000000    -0.595000000
C     0.175000000    -0.968000000    -1.275000000
C     0.505000000    -1.762000000    -2.530000000
O     1.677000000    -1.963000000    -2.828000000
O    -0.406000000    -2.033000000    -3.338000000
O    -2.465000000    -5.631000000    -3.755000000
H    -1.592000000    -5.365000000    -4.042000000
H    -2.337000000    -5.947000000    -2.860000000
O    -2.970000000    -2.488000000     6.168000000
H    -2.686000000    -2.508000000     5.254000000
H    -3.780000000    -1.979000000     6.156000000
O    -0.309000000    -0.894000000     4.565000000
H     0.315000000    -0.659000000     5.252000000
H     0.233000000    -1.240000000     3.856000000
O     3.794000000     1.641000000     3.757000000
H     3.074000000     2.112000000     4.177000000
H     4.580000000     2.119000000     4.021000000
O     2.674000000     2.905000000    -1.499000000
H     3.142000000     2.882000000    -0.664000000
H     2.596000000     1.986000000    -1.755000000
O    -4.157000000     0.786000000    -3.951000000
H    -4.835000000     1.239000000    -4.452000000
H    -4.633000000     0.132000000    -3.440000000
O     4.350000000     2.217000000     0.858000000
H     4.218000000     1.972000000     1.774000000
H     4.961000000     1.562000000     0.521000000
O    -0.383000000     0.023000000    -5.133000000
H     0.478000000     0.029000000    -5.552000000
H    -0.335000000    -0.691000000    -4.497000000
O     0.377000000     4.292000000    -0.728000000
H    -0.423000000     4.183000000    -1.241000000
H     1.013000000     3.715000000    -1.151000000
O     5.042000000    -2.599000000    -4.992000000
H     5.223000000    -2.898000000    -4.101000000
H     4.103000000    -2.412000000    -4.996000000
O    -2.080000000     5.487000000     5.187000000
H    -1.627000000     4.665000000     5.374000000
H    -2.193000000     5.487000000     4.236000000
O    -2.025000000     6.107000000     2.583000000
H    -1.108000000     5.873000000     2.442000000
H    -2.484000000     5.745000000     1.825000000
O    -2.795000000    -3.115000000     3.645000000
H    -3.325000000    -3.707000000     3.111000000
H    -2.658000000    -2.348000000     3.089000000
O    -2.035000000     2.592000000    -4.704000000
H    -2.883000000     2.177000000    -4.546000000
H    -1.440000000     1.861000000    -4.874000000
O    -5.701000000    -0.834000000    -2.486000000
H    -5.799000000    -1.158000000    -1.591000000
H    -6.276000000    -1.395000000    -3.007000000
O    -2.176000000     0.816000000     5.567000000
H    -3.059000000     0.452000000     5.617000000
H    -1.673000000     0.161000000     5.083000000
O     2.345000000     0.967000000    -5.729000000
H     3.275000000     0.832000000    -5.912000000
H     2.205000000     1.902000000    -5.879000000
O     5.608000000     1.291000000    -2.766000000
H     5.873000000     1.642000000    -3.617000000
H     4.816000000     0.787000000    -2.951000000
O     2.991000000     0.429000000    -3.163000000
H     2.533000000    -0.401000000    -3.027000000
H     2.629000000     0.771000000    -3.980000000
O    -3.992000000    -4.467000000    -5.726000000
H    -3.697000000    -4.972000000    -4.968000000
H    -3.243000000    -3.917000000    -5.954000000
O    -0.716000000    -4.343000000     1.847000000
H    -1.108000000    -4.820000000     2.578000000
H    -1.456000000    -3.922000000     1.411000000
O    -0.909000000    -2.787000000    -7.930000000
H    -1.443000000    -2.770000000    -8.725000000
H    -1.524000000    -2.592000000    -7.224000000
O     4.556000000    -5.259000000    -3.156000000
H     4.762000000    -5.993000000    -2.578000000
H     3.631000000    -5.077000000    -2.991000000
O    -2.468000000    -2.754000000     0.750000000
H    -2.345000000    -3.018000000    -0.162000000
H    -2.469000000    -1.797000000     0.724000000
O    -5.224000000     2.221000000     5.014000000
H    -5.604000000     2.606000000     4.224000000
H    -5.708000000     2.626000000     5.734000000
O     0.615000000     5.536000000     1.701000000
H     1.570000000     5.601000000     1.733000000
H     0.436000000     5.039000000     0.903000000
O    -2.439000000    -3.259000000    -1.844000000
H    -1.822000000    -2.935000000    -2.500000000
H    -2.932000000    -3.944000000    -2.296000000
O     1.738000000     2.774000000     5.582000000
H     2.152000000     3.637000000     5.563000000
H     0.842000000     2.932000000     5.287000000
O     1.714000000    -0.223000000     6.298000000
H     1.789000000     0.725000000     6.190000000
H     2.603000000    -0.512000000     6.503000000
O     1.750000000    -3.917000000    -7.376000000
H     0.851000000    -3.666000000    -7.586000000
H     2.092000000    -3.179000000    -6.870000000
O    -1.008000000     3.102000000     6.034000000
H    -1.140000000     3.093000000     6.982000000
H    -1.351000000     2.260000000     5.737000000
O    -5.018000000    -0.332000000     5.311000000
H    -4.984000000     0.622000000     5.240000000
H    -5.563000000    -0.496000000     6.080000000
O    -4.491000000     1.598000000     1.586000000
H    -4.474000000     1.485000000     2.536000000
H    -4.660000000     0.720000000     1.243000000
O     0.979000000    -7.178000000    -4.266000000
H     0.851000000    -6.244000000    -4.432000000
H     0.122000000    -7.488000000    -3.972000000
O     2.722000000     5.259000000     5.126000000
H     2.599000000     5.600000000     4.240000000
H     2.742000000     6.039000000     5.681000000
O    -1.371000000    -6.486000000    -1.245000000
H    -1.312000000    -7.157000000    -0.565000000
H    -1.834000000    -5.761000000    -0.825000000
O     1.041000000    -2.246000000     2.588000000
H     0.933000000    -1.561000000     1.928000000
H     0.462000000    -2.951000000     2.299000000
O    -4.445000000    -1.173000000     1.926000000
H    -5.346000000    -1.393000000     2.163000000
H    -4.130000000    -1.939000000     1.445000000
O    -2.407000000     3.243000000    -1.444000000
H    -2.972000000     3.322000000    -2.212000000
H    -2.327000000     2.300000000    -1.301000000
O    -0.345000000    -4.503000000    -4.704000000
H    -0.397000000    -3.667000000    -4.240000000
H     0.303000000    -4.355000000    -5.393000000
O    -6.403000000     1.833000000    -1.636000000
H    -6.062000000     0.989000000    -1.932000000
H    -7.331000000     1.812000000    -1.870000000
O    -4.076000000     4.310000000     0.630000000
H    -4.072000000     3.472000000     1.093000000
H    -3.520000000     4.163000000    -0.135000000
O     1.978000000    -3.798000000     4.588000000
H     2.003000000    -3.360000000     3.737000000
H     2.085000000    -3.091000000     5.224000000
O     1.905000000    -5.465000000    -2.078000000
H     1.566000000    -6.119000000    -2.690000000
H     1.124000000    -5.069000000    -1.693000000
O    -2.477000000    -2.128000000    -5.648000000
H    -3.177000000    -1.477000000    -5.610000000
H    -1.890000000    -1.891000000    -4.931000000
O     4.796000000    -1.020000000     4.173000000
H     4.121000000    -0.409000000     3.878000000
H     5.620000000    -0.616000000     3.902000000
O     0.923000000     2.901000000     8.122000000
H     0.935000000     3.769000000     8.526000000
H     1.180000000     3.056000000     7.213000000
O     2.363000000    -1.952000000    -5.421000000
H     1.969000000    -1.950000000    -4.549000000
H     2.954000000    -1.198000000    -5.418000000
