161
-3004.13715
C    -0.481000000     0.696000000    -1.192000000
H    -0.703000000     1.389000000    -2.000000000
C    -0.504000000     1.205000000     0.076000000
H    -0.942000000     2.180000000     0.269000000
C    -0.062000000     0.440000000     1.139000000
C     0.040000000     0.925000000     2.549000000
H     0.895000000     0.643000000     3.167000000
H    -0.048000000     2.012000000     2.600000000
H    -0.864000000     0.592000000     3.064000000
C     0.489000000    -0.832000000     0.883000000
H     0.838000000    -1.487000000     1.677000000
C     0.455000000    -1.428000000    -0.393000000
H     0.839000000    -2.430000000    -0.570000000
C    -0.074000000    -0.646000000    -1.471000000
C     0.009000000    -1.000000000    -2.898000000
O     0.761000000    -1.947000000    -3.224000000
O    -0.640000000    -0.314000000    -3.678000000
O     0.340000000    -6.315000000    -3.419000000
H     1.241000000    -6.302000000    -3.741000000
H    -0.188000000    -6.515000000    -4.192000000
O    -2.698000000     1.929000000    -6.387000000
H    -3.157000000     1.763000000    -5.564000000
H    -1.838000000     1.526000000    -6.267000000
O     5.040000000     2.448000000     5.353000000
H     4.207000000     2.875000000     5.550000000
H     5.313000000     2.827000000     4.518000000
O     3.676000000     0.857000000     2.823000000
H     4.512000000     1.297000000     2.672000000
H     3.099000000     1.545000000     3.154000000
O     2.566000000     3.294000000     6.229000000
H     2.897000000     3.612000000     7.069000000
H     1.825000000     2.733000000     6.459000000
O    -1.489000000    -2.128000000     5.409000000
H    -2.211000000    -2.274000000     6.020000000
H    -1.837000000    -2.398000000     4.559000000
O    -2.216000000    -4.878000000    -1.991000000
H    -1.915000000    -4.360000000    -2.737000000
H    -2.033000000    -4.329000000    -1.228000000
O    -1.283000000    -3.486000000    -4.464000000
H    -1.612000000    -2.727000000    -4.946000000
H    -0.485000000    -3.173000000    -4.039000000
O     4.398000000     0.342000000     0.131000000
H     3.728000000     0.570000000    -0.513000000
H     4.078000000     0.716000000     0.952000000
O     1.258000000     4.372000000     1.353000000
H     0.941000000     5.264000000     1.212000000
H     1.546000000     4.081000000     0.488000000
O     4.325000000    -2.065000000     5.814000000
H     4.275000000    -1.153000000     6.101000000
H     4.201000000    -2.025000000     4.866000000
O    -0.193000000    -4.794000000     1.039000000
H     0.619000000    -4.594000000     1.504000000
H    -0.871000000    -4.757000000     1.714000000
O    -2.911000000     4.120000000     4.828000000
H    -3.821000000     4.219000000     4.546000000
H    -2.744000000     3.180000000     4.771000000
O    -1.843000000    -4.719000000     3.384000000
H    -2.098000000    -3.900000000     2.958000000
H    -2.165000000    -4.632000000     4.281000000
O     4.896000000    -3.910000000    -0.597000000
H     5.502000000    -4.141000000     0.107000000
H     5.024000000    -4.591000000    -1.257000000
O    -2.722000000     1.544000000    -3.615000000
H    -2.307000000     2.324000000    -3.249000000
H    -1.991000000     0.989000000    -3.887000000
O     3.484000000     3.569000000     2.814000000
H     3.965000000     4.378000000     2.638000000
H     2.579000000     3.773000000     2.579000000
O     0.073000000     1.847000000    -5.060000000
H     0.255000000     1.091000000    -4.502000000
H    -0.234000000     2.523000000    -4.456000000
O     5.358000000    -4.340000000     2.673000000
H     6.119000000    -3.833000000     2.391000000
H     4.730000000    -3.682000000     2.971000000
O     0.697000000    -0.812000000    -7.680000000
H     1.368000000    -0.984000000    -7.019000000
H     0.613000000     0.141000000    -7.694000000
O    -2.457000000    -1.341000000     0.452000000
H    -2.847000000    -0.988000000    -0.347000000
H    -1.517000000    -1.191000000     0.347000000
O     2.489000000     1.074000000    -1.491000000
H     1.572000000     0.912000000    -1.270000000
H     2.585000000     2.025000000    -1.433000000
O     2.341000000    -4.988000000    -5.397000000
H     1.777000000    -4.362000000    -5.852000000
H     2.625000000    -4.525000000    -4.609000000
O     0.104000000     1.807000000    -7.875000000
H     0.221000000     1.995000000    -6.944000000
H     0.384000000     2.609000000    -8.318000000
O    -2.715000000     4.269000000    -1.128000000
H    -1.912000000     3.816000000    -0.870000000
H    -2.411000000     5.058000000    -1.576000000
O     2.851000000     3.757000000    -0.985000000
H     2.886000000     4.425000000    -1.669000000
H     3.510000000     4.032000000    -0.347000000
O     2.118000000    -1.059000000    -5.418000000
H     1.983000000    -0.166000000    -5.099000000
H     1.770000000    -1.616000000    -4.722000000
O     1.403000000    -3.537000000     3.647000000
H     1.728000000    -4.430000000     3.763000000
H     0.663000000    -3.471000000     4.249000000
O     0.172000000    -7.187000000    -0.987000000
H     0.130000000    -6.472000000    -0.352000000
H     0.160000000    -6.751000000    -1.839000000
O    -4.744000000    -2.952000000    -2.623000000
H    -4.205000000    -2.242000000    -2.275000000
H    -5.267000000    -3.244000000    -1.877000000
O     1.241000000     5.750000000     4.668000000
H     1.593000000     6.236000000     5.413000000
H     1.640000000     4.882000000     4.738000000
O     1.449000000     1.462000000     8.114000000
H     1.123000000     1.520000000     9.012000000
H     0.928000000     0.766000000     7.715000000
O    -3.342000000    -2.415000000     2.904000000
H    -3.238000000    -2.161000000     1.987000000
H    -4.010000000    -1.819000000     3.244000000
O    -4.085000000    -0.228000000    -1.649000000
H    -3.727000000     0.353000000    -2.320000000
H    -4.866000000     0.225000000    -1.332000000
O    -0.051000000    -0.572000000     7.507000000
H    -0.192000000    -0.929000000     6.630000000
H    -0.926000000    -0.531000000     7.893000000
O     0.762000000    -3.669000000    -7.106000000
H    -0.132000000    -3.875000000    -7.381000000
H     0.843000000    -2.725000000    -7.245000000
O     3.286000000     1.266000000    -4.335000000
H     3.083000000     1.352000000    -3.404000000
H     3.398000000     2.167000000    -4.640000000
O    -5.081000000     3.595000000     1.203000000
H    -4.289000000     3.967000000     0.815000000
H    -5.745000000     3.679000000     0.519000000
O     0.513000000     6.410000000    -1.074000000
H     0.986000000     6.446000000    -1.906000000
H    -0.324000000     6.837000000    -1.257000000
O    -3.995000000    -1.831000000    -6.927000000
H    -4.198000000    -2.416000000    -6.197000000
H    -3.383000000    -1.193000000    -6.559000000
O     3.067000000    -3.746000000    -3.203000000
H     3.662000000    -3.890000000    -2.467000000
H     2.493000000    -3.037000000    -2.912000000
O     3.879000000    -1.992000000     3.146000000
H     3.770000000    -1.060000000     2.955000000
H     2.987000000    -2.339000000     3.163000000
O     5.135000000    -1.238000000    -2.477000000
H     4.879000000    -0.599000000    -1.811000000
H     4.587000000    -2.002000000    -2.298000000
O    -1.751000000    -1.096000000    -5.691000000
H    -1.059000000    -0.956000000    -6.337000000
H    -1.334000000    -0.911000000    -4.849000000
O    -1.116000000     3.800000000    -3.602000000
H    -0.908000000     4.648000000    -3.211000000
H    -1.973000000     3.928000000    -4.010000000
O    -2.670000000     0.457000000     5.429000000
H    -3.559000000     0.312000000     5.105000000
H    -2.181000000    -0.314000000     5.142000000
O    -1.040000000     6.104000000     3.334000000
H    -0.257000000     5.857000000     3.826000000
H    -1.721000000     5.513000000     3.656000000
O    -1.706000000    -5.227000000    -6.417000000
H    -1.624000000    -4.712000000    -5.615000000
H    -1.471000000    -6.117000000    -6.154000000
