161
-3028.05061
C    -1.242000000     0.387000000    -0.797000000
H    -2.174000000     0.716000000    -1.249000000
C    -1.075000000     0.563000000     0.536000000
H    -1.849000000     1.154000000     1.021000000
C     0.128000000     0.179000000     1.174000000
C     0.442000000     0.538000000     2.664000000
H    -0.419000000     0.258000000     3.275000000
H     1.293000000    -0.019000000     3.062000000
H     0.694000000     1.599000000     2.714000000
C     1.154000000    -0.397000000     0.463000000
H     2.076000000    -0.608000000     1.000000000
C     0.956000000    -0.777000000    -0.848000000
H     1.740000000    -1.280000000    -1.409000000
C    -0.209000000    -0.284000000    -1.497000000
C    -0.439000000    -0.577000000    -3.001000000
O     0.460000000    -1.021000000    -3.669000000
O    -1.533000000    -0.429000000    -3.440000000
O    -1.581000000    -4.856000000     3.656000000
H    -1.652000000    -3.901000000     3.660000000
H    -2.410000000    -5.156000000     3.283000000
O    -5.201000000    -2.605000000     3.031000000
H    -4.809000000    -2.135000000     2.295000000
H    -5.129000000    -1.999000000     3.768000000
O     4.603000000     4.209000000     4.533000000
H     4.521000000     3.255000000     4.528000000
H     3.728000000     4.526000000     4.310000000
O    -3.355000000    -4.290000000    -1.741000000
H    -4.210000000    -4.646000000    -1.500000000
H    -2.738000000    -4.998000000    -1.551000000
O    -2.668000000     0.891000000     3.869000000
H    -2.420000000     0.923000000     2.945000000
H    -3.612000000     0.738000000     3.858000000
O     2.762000000    -4.208000000    -6.326000000
H     2.951000000    -5.141000000    -6.424000000
H     2.122000000    -4.167000000    -5.616000000
O     1.093000000    -3.521000000    -4.238000000
H     1.056000000    -2.576000000    -4.088000000
H     0.253000000    -3.731000000    -4.648000000
O    -1.030000000     5.395000000     2.179000000
H    -1.751000000     5.917000000     1.827000000
H    -1.366000000     5.052000000     3.008000000
O     4.069000000     2.349000000    -6.061000000
H     3.380000000     1.766000000    -5.743000000
H     4.067000000     3.081000000    -5.444000000
O     4.276000000    -2.951000000    -2.551000000
H     3.857000000    -3.784000000    -2.333000000
H     4.951000000    -2.841000000    -1.881000000
O    -1.700000000    -5.068000000    -6.579000000
H    -1.687000000    -4.215000000    -6.144000000
H    -2.148000000    -4.907000000    -7.409000000
O     1.377000000     3.001000000    -0.106000000
H     1.741000000     3.692000000     0.447000000
H     0.982000000     2.384000000     0.509000000
O    -1.370000000    -1.499000000     6.381000000
H    -1.671000000    -2.177000000     6.985000000
H    -1.625000000    -1.818000000     5.516000000
O    -2.073000000    -2.516000000    -0.084000000
H    -2.431000000    -2.907000000    -0.881000000
H    -1.598000000    -1.743000000    -0.389000000
O    -4.145000000    -0.904000000     1.118000000
H    -3.760000000    -1.427000000     0.415000000
H    -4.459000000    -0.112000000     0.682000000
O     5.286000000    -0.664000000     2.488000000
H     5.978000000    -1.011000000     3.051000000
H     4.831000000    -1.440000000     2.161000000
O    -0.049000000    -4.409000000     1.280000000
H    -0.531000000    -3.694000000     0.866000000
H    -0.591000000    -4.663000000     2.026000000
O    -1.879000000     0.478000000    -5.959000000
H    -1.845000000     0.268000000    -5.025000000
H    -1.922000000     1.433000000    -5.988000000
O    -5.512000000     0.934000000    -0.580000000
H    -5.835000000     0.257000000    -1.176000000
H    -5.465000000     1.724000000    -1.119000000
O    -0.584000000    -2.347000000    -7.773000000
H    -0.845000000    -1.720000000    -8.447000000
H     0.331000000    -2.133000000    -7.589000000
O     2.560000000     1.900000000    -2.394000000
H     3.333000000     2.251000000    -1.951000000
H     1.842000000     2.053000000    -1.780000000
O     0.166000000     2.811000000     7.319000000
H     0.607000000     1.973000000     7.181000000
H    -0.730000000     2.663000000     7.017000000
O     1.774000000     4.980000000     1.680000000
H     2.285000000     5.756000000     1.448000000
H     0.864000000     5.276000000     1.652000000
O    -0.392000000     2.968000000    -6.058000000
H    -0.052000000     3.694000000    -5.535000000
H    -0.053000000     2.183000000    -5.627000000
O     1.302000000     1.133000000    -4.725000000
H     1.020000000     0.262000000    -4.447000000
H     1.787000000     1.479000000    -3.975000000
O     4.078000000    -3.197000000     2.265000000
H     3.216000000    -2.972000000     2.616000000
H     4.390000000    -3.904000000     2.831000000
O    -6.359000000    -0.752000000    -2.587000000
H    -5.541000000    -1.244000000    -2.664000000
H    -6.440000000    -0.290000000    -3.421000000
O    -3.738000000    -1.637000000    -2.537000000
H    -3.496000000    -2.560000000    -2.618000000
H    -2.907000000    -1.165000000    -2.605000000
O     4.462000000     1.540000000     4.595000000
H     4.193000000     1.015000000     3.841000000
H     4.224000000     1.009000000     5.355000000
O    -3.168000000     3.320000000     0.660000000
H    -2.443000000     3.325000000     0.035000000
H    -3.576000000     4.180000000     0.560000000
O    -4.624000000     3.106000000    -1.974000000
H    -4.622000000     3.369000000    -2.895000000
H    -4.409000000     3.907000000    -1.496000000
O     3.306000000    -0.011000000     6.587000000
H     3.671000000    -0.571000000     7.272000000
H     2.358000000    -0.087000000     6.696000000
O     0.694000000    -4.256000000     5.566000000
H     1.502000000    -4.126000000     5.068000000
H     0.053000000    -4.538000000     4.914000000
O    -2.213000000     1.705000000     6.781000000
H    -2.524000000     1.396000000     5.931000000
H    -2.105000000     0.908000000     7.301000000
O    -2.064000000     3.730000000     4.374000000
H    -2.293000000     2.843000000     4.098000000
H    -2.410000000     3.802000000     5.263000000
O     1.255000000     0.338000000    -7.722000000
H     0.917000000     0.228000000    -6.834000000
H     1.908000000    -0.356000000    -7.818000000
O    -5.494000000     3.205000000     2.347000000
H    -5.284000000     2.715000000     3.142000000
H    -4.706000000     3.137000000     1.809000000
O     1.860000000    -5.741000000     0.021000000
H     1.178000000    -5.299000000     0.527000000
H     1.498000000    -5.806000000    -0.862000000
O    -4.170000000     0.349000000    -7.347000000
H    -4.362000000    -0.509000000    -7.727000000
H    -3.311000000     0.243000000    -6.940000000
O     3.105000000    -1.716000000    -7.434000000
H     3.559000000    -1.458000000    -6.631000000
H     2.975000000    -2.660000000    -7.342000000
O     3.084000000    -1.281000000    -4.610000000
H     3.545000000    -1.754000000    -3.917000000
H     2.160000000    -1.341000000    -4.367000000
O     0.854000000     0.068000000     7.553000000
H     0.001000000    -0.353000000     7.449000000
H     1.183000000    -0.259000000     8.390000000
O     0.311000000     4.656000000     5.051000000
H    -0.642000000     4.675000000     4.963000000
H     0.555000000     3.758000000     4.825000000
O    -1.776000000    -2.434000000    -5.317000000
H    -1.543000000    -1.935000000    -6.100000000
H    -1.570000000    -1.848000000    -4.589000000
O     0.142000000     5.337000000    -1.214000000
H    -0.496000000     5.620000000    -0.558000000
H     0.552000000     4.562000000    -0.830000000
O    -4.641000000    -2.572000000    -5.153000000
H    -4.076000000    -2.626000000    -5.924000000
H    -4.291000000    -1.834000000    -4.652000000
O    -1.854000000    -2.143000000     3.305000000
H    -2.442000000    -1.877000000     2.599000000
H    -1.428000000    -1.331000000     3.581000000
O     1.051000000    -5.438000000    -2.465000000
H     0.249000000    -5.863000000    -2.770000000
H     1.234000000    -4.771000000    -3.126000000
