161
-3020.83876
C     0.811000000    -0.040000000    -1.220000000
H     1.340000000    -0.193000000    -2.157000000
C     0.978000000    -0.889000000    -0.101000000
H     1.645000000    -1.743000000    -0.192000000
C     0.141000000    -0.734000000     0.949000000
C     0.312000000    -1.630000000     2.175000000
H     0.942000000    -1.232000000     2.974000000
H    -0.660000000    -1.919000000     2.582000000
H     0.842000000    -2.536000000     1.873000000
C    -0.825000000     0.256000000     0.978000000
H    -1.428000000     0.323000000     1.880000000
C    -0.910000000     1.192000000    -0.061000000
H    -1.523000000     2.068000000     0.134000000
C    -0.183000000     1.041000000    -1.256000000
C    -0.416000000     1.827000000    -2.501000000
O    -1.377000000     2.546000000    -2.596000000
O     0.318000000     1.655000000    -3.464000000
O    -0.190000000    -5.040000000    -0.524000000
H    -0.549000000    -5.634000000     0.135000000
H    -0.860000000    -4.365000000    -0.629000000
O    -0.320000000    -6.897000000     1.458000000
H    -0.597000000    -6.163000000     2.007000000
H     0.531000000    -7.153000000     1.813000000
O    -1.819000000     1.475000000    -5.279000000
H    -2.650000000     1.914000000    -5.097000000
H    -1.270000000     1.679000000    -4.522000000
O     5.071000000     2.280000000    -4.358000000
H     5.363000000     1.519000000    -3.856000000
H     4.290000000     2.585000000    -3.898000000
O     5.304000000     0.121000000    -2.591000000
H     5.799000000    -0.396000000    -3.227000000
H     4.675000000    -0.497000000    -2.219000000
O    -3.759000000    -3.607000000     4.685000000
H    -4.666000000    -3.301000000     4.678000000
H    -3.783000000    -4.439000000     4.213000000
O    -4.091000000     1.242000000     0.867000000
H    -3.347000000     1.375000000     1.454000000
H    -4.497000000     2.106000000     0.794000000
O     1.078000000    -1.793000000    -5.914000000
H     0.636000000    -2.390000000    -6.519000000
H     1.471000000    -2.366000000    -5.257000000
O    -0.149000000     7.408000000    -4.485000000
H    -0.069000000     6.584000000    -4.003000000
H    -1.085000000     7.610000000    -4.459000000
O     5.403000000    -5.146000000     0.252000000
H     5.335000000    -6.099000000     0.323000000
H     4.496000000    -4.846000000     0.192000000
O     2.433000000    -5.545000000    -0.032000000
H     2.364000000    -6.333000000     0.507000000
H     1.529000000    -5.333000000    -0.264000000
O     0.983000000    -6.335000000     4.876000000
H     0.635000000    -5.458000000     4.716000000
H     1.909000000    -6.271000000     4.645000000
O    -0.130000000     0.556000000    -8.601000000
H    -0.120000000     0.748000000    -7.663000000
H    -0.989000000     0.162000000    -8.755000000
O     2.830000000     1.590000000     5.491000000
H     3.487000000     1.844000000     4.843000000
H     2.856000000     2.288000000     6.145000000
O     3.399000000    -3.360000000    -1.793000000
H     3.551000000    -2.806000000    -1.027000000
H     3.002000000    -4.156000000    -1.438000000
O    -2.370000000    -2.331000000    -4.113000000
H    -2.243000000    -1.508000000    -3.641000000
H    -2.209000000    -2.108000000    -5.030000000
O     4.421000000    -1.217000000    -0.011000000
H     4.280000000    -1.450000000     0.907000000
H     4.487000000    -0.262000000    -0.008000000
O     2.206000000    -0.376000000     7.599000000
H     2.254000000     0.099000000     6.769000000
H     2.965000000    -0.958000000     7.586000000
O     1.094000000     0.960000000    -5.847000000
H     0.998000000     1.221000000    -4.931000000
H     0.903000000     0.022000000    -5.850000000
O    -2.899000000    -0.028000000    -2.748000000
H    -2.636000000     0.884000000    -2.874000000
H    -3.751000000     0.027000000    -2.316000000
O     3.646000000     1.874000000    -0.736000000
H     3.495000000     2.794000000    -0.952000000
H     4.088000000     1.516000000    -1.506000000
O     0.791000000    -3.560000000    -3.608000000
H     0.642000000    -4.475000000    -3.847000000
H     1.100000000    -3.597000000    -2.703000000
O     3.555000000    -5.609000000     4.160000000
H     3.389000000    -4.715000000     4.457000000
H     4.144000000    -5.975000000     4.820000000
O     0.593000000     2.065000000     3.797000000
H     1.309000000     1.705000000     4.321000000
H     1.018000000     2.687000000     3.207000000
O     1.482000000     4.272000000     2.069000000
H     2.424000000     4.356000000     2.220000000
H     1.374000000     4.443000000     1.133000000
O    -5.834000000     3.267000000     0.352000000
H    -5.709000000     4.213000000     0.431000000
H    -6.701000000     3.108000000     0.727000000
O     3.625000000     1.107000000    -6.627000000
H     4.003000000     1.067000000    -5.749000000
H     2.682000000     1.019000000    -6.486000000
O    -3.073000000     1.167000000     5.486000000
H    -2.926000000     1.386000000     4.566000000
H    -2.377000000     1.627000000     5.955000000
O    -1.298000000    -4.418000000     2.433000000
H    -2.144000000    -4.789000000     2.685000000
H    -1.521000000    -3.632000000     1.933000000
O     2.860000000    -3.139000000     5.588000000
H     1.986000000    -3.304000000     5.235000000
H     2.704000000    -2.854000000     6.488000000
O    -2.722000000     4.749000000    -5.669000000
H    -2.187000000     4.894000000    -4.889000000
H    -3.471000000     4.243000000    -5.356000000
O    -1.955000000     3.150000000    -7.602000000
H    -1.833000000     2.414000000    -7.003000000
H    -2.063000000     3.910000000    -7.030000000
O    -2.164000000    -1.200000000    -6.460000000
H    -2.227000000    -0.872000000    -7.357000000
H    -1.869000000    -0.447000000    -5.949000000
O    -0.564000000     3.001000000     6.183000000
H    -0.334000000     2.758000000     5.286000000
H     0.195000000     3.490000000     6.501000000
O    -2.346000000     2.444000000     3.113000000
H    -2.632000000     3.221000000     3.592000000
H    -1.390000000     2.479000000     3.148000000
O     3.748000000    -3.349000000    -4.880000000
H     4.696000000    -3.219000000    -4.916000000
H     3.537000000    -3.314000000    -3.947000000
O    -5.259000000     0.222000000    -1.302000000
H    -4.781000000     0.446000000    -0.503000000
H    -5.815000000    -0.515000000    -1.050000000
O    -4.210000000     2.629000000    -4.707000000
H    -4.651000000     2.914000000    -3.907000000
H    -4.664000000     1.823000000    -4.956000000
O    -0.161000000    -3.808000000     4.974000000
H    -0.664000000    -3.081000000     5.341000000
H    -0.592000000    -4.001000000     4.142000000
O    -5.455000000    -2.026000000     2.027000000
H    -5.535000000    -1.459000000     2.794000000
H    -4.521000000    -2.226000000     1.973000000
O    -1.433000000     5.348000000    -2.972000000
H    -1.783000000     4.464000000    -2.854000000
H    -1.252000000     5.654000000    -2.083000000
O    -2.724000000    -2.330000000     1.091000000
H    -2.821000000    -2.803000000     0.264000000
H    -2.587000000    -1.419000000     0.830000000
O     2.248000000     3.252000000    -3.742000000
H     1.860000000     3.842000000    -4.388000000
H     1.566000000     2.602000000    -3.571000000
O     1.374000000     4.797000000    -5.829000000
H     2.027000000     4.300000000    -6.322000000
H     0.830000000     5.208000000    -6.501000000
O     3.780000000    -1.313000000     2.695000000
H     3.454000000    -0.435000000     2.501000000
H     3.634000000    -1.422000000     3.635000000
O    -2.279000000    -1.522000000     5.780000000
H    -2.903000000    -2.197000000     5.513000000
H    -2.632000000    -0.711000000     5.414000000
O    -4.324000000     3.463000000    -2.046000000
H    -4.827000000     2.945000000    -1.418000000
H    -3.428000000     3.136000000    -1.964000000
O     2.564000000     0.969000000     1.670000000
H     2.680000000     0.689000000     0.762000000
H     1.623000000     1.121000000     1.755000000
