161
-3024.51072
C     1.112000000    -0.516000000    -0.812000000
H     2.034000000    -0.823000000    -1.299000000
C     1.203000000    -0.191000000     0.531000000
H     2.173000000    -0.166000000     1.022000000
C     0.108000000     0.246000000     1.140000000
C     0.261000000     0.738000000     2.540000000
H     0.081000000    -0.128000000     3.181000000
H     1.211000000     1.216000000     2.788000000
H    -0.526000000     1.435000000     2.836000000
C    -1.164000000     0.416000000     0.535000000
H    -1.980000000     0.740000000     1.176000000
C    -1.272000000     0.033000000    -0.817000000
H    -2.237000000     0.006000000    -1.316000000
C    -0.132000000    -0.403000000    -1.502000000
C    -0.249000000    -0.792000000    -2.931000000
O    -1.331000000    -1.005000000    -3.466000000
O     0.707000000    -0.814000000    -3.598000000
O    -3.490000000    -3.152000000    -6.165000000
H    -3.724000000    -3.797000000    -6.832000000
H    -3.865000000    -2.331000000    -6.483000000
O    -3.699000000     5.804000000     1.801000000
H    -2.825000000     5.414000000     1.812000000
H    -4.246000000     5.181000000     2.280000000
O     0.949000000    -3.401000000    -3.824000000
H     0.704000000    -2.484000000    -3.696000000
H     0.243000000    -3.765000000    -4.357000000
O    -2.038000000     4.047000000     3.433000000
H    -1.947000000     4.944000000     3.756000000
H    -1.139000000     3.729000000     3.355000000
O    -0.968000000    -3.805000000    -5.617000000
H    -0.500000000    -4.324000000    -6.272000000
H    -1.842000000    -3.684000000    -5.987000000
O     3.325000000     1.256000000     5.890000000
H     3.511000000     0.660000000     5.164000000
H     3.857000000     2.030000000     5.706000000
O     5.866000000    -0.677000000     1.485000000
H     6.348000000    -0.711000000     0.659000000
H     5.467000000    -1.543000000     1.566000000
O    -2.325000000    -3.551000000    -2.853000000
H    -2.133000000    -2.639000000    -3.068000000
H    -2.234000000    -4.017000000    -3.684000000
O    -2.203000000    -0.071000000     5.177000000
H    -1.324000000     0.288000000     5.294000000
H    -2.510000000    -0.246000000     6.067000000
O     0.292000000     0.292000000     6.189000000
H     0.097000000     1.092000000     6.676000000
H     0.907000000    -0.184000000     6.747000000
O    -0.657000000     3.847000000    -5.189000000
H    -1.444000000     3.381000000    -4.908000000
H    -0.089000000     3.844000000    -4.419000000
O    -1.306000000    -2.974000000     4.930000000
H    -0.513000000    -2.989000000     5.465000000
H    -1.634000000    -2.079000000     5.011000000
O     4.243000000    -2.772000000     0.993000000
H     3.817000000    -2.503000000     0.179000000
H     3.539000000    -2.779000000     1.641000000
O     1.870000000     2.732000000    -0.096000000
H     2.401000000     2.787000000     0.698000000
H     1.544000000     1.832000000    -0.104000000
O     6.192000000     1.069000000    -2.664000000
H     5.592000000     1.812000000    -2.609000000
H     6.759000000     1.273000000    -3.409000000
O     4.138000000     2.803000000    -2.268000000
H     3.673000000     2.041000000    -2.612000000
H     3.584000000     3.120000000    -1.554000000
O    -4.085000000    -0.608000000    -4.310000000
H    -3.310000000    -1.137000000    -4.123000000
H    -3.877000000    -0.160000000    -5.130000000
O     6.442000000     1.701000000     2.837000000
H     6.280000000     1.132000000     2.085000000
H     7.383000000     1.872000000     2.810000000
O    -2.449000000     3.357000000     0.590000000
H    -2.009000000     3.608000000     1.402000000
H    -1.752000000     3.339000000    -0.066000000
O    -4.213000000    -5.034000000    -1.312000000
H    -3.645000000    -4.405000000    -1.756000000
H    -5.071000000    -4.910000000    -1.718000000
O     3.763000000    -3.337000000    -2.789000000
H     4.436000000    -2.945000000    -3.345000000
H     2.937000000    -3.118000000    -3.222000000
O     4.274000000    -0.058000000     3.678000000
H     5.109000000     0.142000000     3.255000000
H     4.012000000    -0.899000000     3.305000000
O    -1.737000000    -4.355000000     2.689000000
H    -1.474000000    -3.546000000     2.250000000
H    -1.568000000    -4.190000000     3.617000000
O     2.775000000    -4.349000000    -7.139000000
H     2.140000000    -4.188000000    -7.837000000
H     2.640000000    -3.631000000    -6.521000000
O    -4.127000000     3.092000000     6.178000000
H    -4.532000000     3.958000000     6.213000000
H    -3.453000000     3.169000000     5.503000000
O    -5.424000000     0.568000000    -2.202000000
H    -4.942000000     0.071000000    -2.863000000
H    -4.770000000     0.779000000    -1.536000000
O    -0.600000000    -1.488000000    -8.939000000
H    -0.793000000    -1.599000000    -8.008000000
H    -1.411000000    -1.143000000    -9.312000000
O    -0.183000000     4.770000000     0.082000000
H     0.131000000     5.221000000     0.866000000
H     0.529000000     4.176000000    -0.154000000
O     2.026000000    -1.694000000     4.870000000
H     2.318000000    -1.691000000     5.782000000
H     1.454000000    -0.930000000     4.800000000
O    -4.648000000     0.693000000     2.551000000
H    -4.046000000     0.585000000     3.288000000
H    -5.511000000     0.773000000     2.957000000
O    -5.632000000    -2.112000000     3.450000000
H    -5.585000000    -2.908000000     2.920000000
H    -5.225000000    -1.438000000     2.905000000
O    -4.160000000     1.463000000     0.151000000
H    -3.641000000     2.267000000     0.179000000
H    -4.241000000     1.199000000     1.068000000
O     5.622000000    -1.431000000    -3.986000000
H     6.121000000    -1.798000000    -3.256000000
H     5.704000000    -0.483000000    -3.879000000
O     1.813000000    -1.734000000    -6.332000000
H     1.797000000    -1.388000000    -5.440000000
H     2.366000000    -1.122000000    -6.817000000
O    -6.983000000     1.277000000     0.721000000
H    -6.028000000     1.228000000     0.750000000
H    -7.175000000     1.734000000    -0.098000000
O     2.237000000     1.481000000    -3.874000000
H     1.496000000     0.886000000    -3.983000000
H     2.500000000     1.704000000    -4.767000000
O    -0.403000000    -4.569000000    -0.975000000
H    -0.822000000    -4.257000000    -1.777000000
H    -0.600000000    -5.505000000    -0.950000000
O     0.838000000     3.352000000    -2.743000000
H     1.107000000     3.591000000    -1.856000000
H     1.259000000     2.507000000    -2.902000000
O     5.123000000     2.993000000     4.816000000
H     5.008000000     3.899000000     4.528000000
H     5.761000000     2.627000000     4.204000000
O     0.069000000    -2.950000000     1.070000000
H     0.229000000    -2.156000000     0.560000000
H    -0.251000000    -3.586000000     0.429000000
O    -2.472000000     1.596000000    -6.491000000
H    -1.852000000     0.896000000    -6.287000000
H    -2.081000000     2.053000000    -7.236000000
O     1.026000000     4.203000000     2.813000000
H     1.861000000     3.741000000     2.734000000
H     1.255000000     5.128000000     2.729000000
O     2.435000000    -3.178000000     2.781000000
H     1.567000000    -3.336000000     2.410000000
H     2.262000000    -2.809000000     3.647000000
O     2.500000000    -0.724000000     7.595000000
H     2.884000000    -0.030000000     7.059000000
H     3.246000000    -1.122000000     8.042000000
O    -0.775000000    -0.562000000    -6.125000000
H    -1.195000000    -0.629000000    -5.268000000
H    -0.039000000    -1.173000000    -6.080000000
O     2.796000000    -4.878000000    -0.672000000
H     3.023000000    -4.317000000    -1.413000000
H     1.863000000    -4.718000000    -0.527000000
O     2.008000000    -5.829000000    -4.006000000
H     1.432000000    -6.147000000    -4.701000000
H     1.758000000    -4.912000000    -3.889000000
O     3.413000000     2.656000000     1.974000000
H     3.957000000     2.258000000     2.654000000
H     4.027000000     3.155000000     1.436000000
