161
-3051.97673
C     0.136000000    -1.412000000    -0.539000000
H     0.372000000    -2.396000000    -0.935000000
C     0.639000000    -0.945000000     0.678000000
H     1.281000000    -1.645000000     1.207000000
C     0.398000000     0.368000000     1.142000000
C     0.930000000     0.890000000     2.458000000
H     1.727000000     1.630000000     2.358000000
H     0.039000000     1.265000000     2.965000000
H     1.267000000     0.071000000     3.097000000
C    -0.263000000     1.261000000     0.291000000
H    -0.382000000     2.274000000     0.666000000
C    -0.707000000     0.832000000    -0.961000000
H    -1.233000000     1.485000000    -1.653000000
C    -0.572000000    -0.493000000    -1.391000000
C    -1.091000000    -0.930000000    -2.744000000
O    -1.811000000    -0.264000000    -3.481000000
O    -0.738000000    -1.986000000    -3.160000000
O     2.801000000    -4.961000000    -4.169000000
H     2.254000000    -5.744000000    -4.109000000
H     2.178000000    -4.238000000    -4.247000000
O    -5.762000000     1.620000000    -2.909000000
H    -5.901000000     2.483000000    -2.519000000
H    -4.813000000     1.500000000    -2.896000000
O    -1.892000000    -0.827000000    -6.310000000
H    -2.788000000    -0.526000000    -6.462000000
H    -1.704000000    -0.571000000    -5.407000000
O     3.265000000     1.142000000    -0.542000000
H     3.735000000     1.875000000    -0.145000000
H     2.579000000     0.927000000     0.090000000
O    -1.868000000     0.266000000     7.186000000
H    -1.940000000    -0.685000000     7.259000000
H    -2.764000000     0.563000000     7.028000000
O    -4.633000000    -0.404000000    -6.711000000
H    -5.217000000     0.156000000    -7.222000000
H    -4.999000000    -0.388000000    -5.826000000
O    -2.389000000    -7.181000000    -3.185000000
H    -1.735000000    -7.451000000    -3.830000000
H    -1.935000000    -6.539000000    -2.639000000
O     2.214000000    -0.467000000    -5.734000000
H     3.126000000    -0.714000000    -5.884000000
H     2.255000000     0.194000000    -5.043000000
O     3.006000000     4.121000000     5.226000000
H     2.326000000     4.690000000     5.586000000
H     2.826000000     4.099000000     4.286000000
O    -6.245000000    -1.025000000    -1.766000000
H    -5.695000000    -1.695000000    -2.173000000
H    -6.166000000    -0.266000000    -2.343000000
O     4.396000000     0.721000000    -2.954000000
H     3.776000000     0.810000000    -3.678000000
H     3.863000000     0.833000000    -2.167000000
O    -0.711000000     1.921000000    -4.187000000
H    -1.184000000     2.191000000    -4.975000000
H    -1.140000000     1.110000000    -3.916000000
O     2.135000000     1.783000000    -4.242000000
H     2.670000000     2.573000000    -4.160000000
H     1.233000000     2.099000000    -4.199000000
O     5.649000000    -3.227000000     0.277000000
H     4.902000000    -2.660000000     0.086000000
H     6.379000000    -2.622000000     0.414000000
O     3.148000000    -4.334000000    -1.602000000
H     3.249000000    -5.241000000    -1.312000000
H     3.349000000    -4.357000000    -2.537000000
O    -0.654000000     4.183000000    -3.155000000
H    -0.908000000     3.388000000    -3.625000000
H    -0.395000000     4.795000000    -3.844000000
O     3.445000000     5.170000000     2.608000000
H     3.405000000     5.261000000     1.656000000
H     3.407000000     6.068000000     2.936000000
O     1.691000000    -2.506000000    -4.054000000
H     0.905000000    -2.180000000    -3.614000000
H     1.802000000    -1.925000000    -4.806000000
O    -2.549000000     0.981000000    -8.391000000
H    -2.590000000     0.049000000    -8.179000000
H    -2.178000000     1.011000000    -9.272000000
O     4.305000000     0.264000000     7.040000000
H     3.666000000     0.783000000     7.529000000
H     4.539000000     0.814000000     6.293000000
O     5.108000000     2.368000000     1.033000000
H     4.961000000     3.214000000     1.456000000
H     6.056000000     2.327000000     0.903000000
O    -1.168000000     4.149000000     6.498000000
H    -0.603000000     4.435000000     7.216000000
H    -0.892000000     4.680000000     5.750000000
O     3.414000000     5.518000000    -0.164000000
H     4.089000000     5.320000000    -0.813000000
H     2.609000000     5.162000000    -0.540000000
O    -2.393000000    -3.488000000    -4.551000000
H    -1.733000000    -2.887000000    -4.207000000
H    -1.968000000    -4.345000000    -4.535000000
O     0.236000000    -7.003000000     0.775000000
H    -0.327000000    -6.233000000     0.844000000
H    -0.194000000    -7.557000000     0.123000000
O    -3.364000000     5.367000000    -2.678000000
H    -3.241000000     6.259000000    -3.001000000
H    -2.493000000     4.972000000    -2.725000000
O    -1.328000000    -4.436000000     0.087000000
H    -1.573000000    -4.922000000     0.875000000
H    -2.141000000    -4.020000000    -0.200000000
O    -4.084000000    -1.672000000    -3.617000000
H    -3.373000000    -1.081000000    -3.370000000
H    -3.667000000    -2.327000000    -4.176000000
O    -1.949000000     2.800000000    -6.554000000
H    -2.421000000     2.045000000    -6.907000000
H    -1.503000000     3.179000000    -7.312000000
O     2.418000000    -4.150000000     1.338000000
H     2.129000000    -3.789000000     0.501000000
H     2.733000000    -5.028000000     1.124000000
O    -0.574000000     6.624000000    -1.687000000
H    -1.323000000     6.900000000    -1.160000000
H    -0.437000000     5.708000000    -1.447000000
O     4.577000000    -0.316000000     1.632000000
H     4.506000000    -0.613000000     0.725000000
H     4.924000000     0.574000000     1.566000000
O     5.105000000     2.015000000     5.202000000
H     4.503000000     2.752000000     5.101000000
H     5.859000000     2.245000000     4.660000000
O     4.873000000    -1.968000000     5.511000000
H     4.695000000    -1.194000000     6.045000000
H     4.217000000    -1.935000000     4.815000000
O    -2.813000000    -0.994000000     1.152000000
H    -1.915000000    -0.886000000     0.839000000
H    -2.807000000    -0.614000000     2.031000000
O    -2.471000000    -3.978000000    -7.555000000
H    -2.029000000    -3.351000000    -8.127000000
H    -2.416000000    -3.586000000    -6.683000000
O    -3.585000000    -3.480000000    -1.215000000
H    -3.614000000    -2.750000000    -1.833000000
H    -4.031000000    -4.195000000    -1.669000000
O    -0.753000000     1.743000000     5.247000000
H    -0.692000000     2.590000000     5.690000000
H    -1.157000000     1.164000000     5.892000000
O     0.468000000    -0.745000000    -7.593000000
H    -0.363000000    -0.607000000    -7.139000000
H     1.133000000    -0.636000000    -6.913000000
O     2.660000000    -7.005000000    -0.496000000
H     1.861000000    -6.784000000    -0.018000000
H     2.861000000    -7.901000000    -0.226000000
O    -0.750000000    -4.707000000    -2.421000000
H    -0.860000000    -3.814000000    -2.749000000
H    -0.740000000    -4.612000000    -1.469000000
O     3.282000000    -2.401000000     3.088000000
H     3.023000000    -3.132000000     2.527000000
H     3.709000000    -1.783000000     2.494000000
O     1.175000000     3.819000000    -1.144000000
H     0.678000000     3.897000000    -1.959000000
H     1.262000000     2.875000000    -1.007000000
O    -4.582000000    -3.055000000     1.221000000
H    -4.187000000    -2.263000000     1.585000000
H    -4.189000000    -3.143000000     0.353000000
O     0.988000000    -3.927000000     3.984000000
H     1.704000000    -3.293000000     3.951000000
H     0.697000000    -4.009000000     3.076000000
O     3.724000000    -1.869000000    -0.692000000
H     3.515000000    -2.711000000    -1.098000000
H     3.285000000    -1.222000000    -1.244000000
O    -3.225000000     0.663000000     3.335000000
H    -3.864000000     1.366000000     3.451000000
H    -2.429000000     0.992000000     3.752000000
O    -7.155000000     0.001000000    -4.572000000
H    -7.304000000    -0.780000000    -4.039000000
H    -6.365000000     0.396000000    -4.202000000
