161
-3025.31149
C     0.322000000    -1.287000000    -0.476000000
H     0.725000000    -2.217000000    -0.868000000
C     1.105000000    -0.500000000     0.394000000
H     2.107000000    -0.848000000     0.631000000
C     0.627000000     0.722000000     0.803000000
C     1.704000000     1.613000000     1.458000000
H     1.445000000     1.600000000     2.519000000
H     2.651000000     1.097000000     1.286000000
H     1.823000000     2.645000000     1.122000000
C    -0.726000000     1.010000000     0.531000000
H    -1.087000000     2.011000000     0.754000000
C    -1.532000000     0.222000000    -0.256000000
H    -2.513000000     0.642000000    -0.463000000
C    -0.997000000    -0.924000000    -0.830000000
C    -1.775000000    -1.732000000    -1.799000000
O    -2.673000000    -1.325000000    -2.526000000
O    -1.207000000    -2.723000000    -2.284000000
O    -2.242000000     1.152000000    -3.180000000
H    -2.450000000     0.222000000    -3.090000000
H    -1.322000000     1.218000000    -2.924000000
O    -5.513000000     3.025000000    -1.632000000
H    -4.975000000     2.997000000    -0.841000000
H    -6.015000000     3.835000000    -1.552000000
O    -3.551000000     5.694000000    -0.735000000
H    -4.200000000     5.437000000    -1.390000000
H    -2.826000000     5.082000000    -0.863000000
O     0.005000000     0.847000000    -5.659000000
H     0.123000000     0.756000000    -4.713000000
H    -0.253000000     1.760000000    -5.781000000
O     5.788000000     1.100000000    -0.879000000
H     6.034000000     1.360000000     0.008000000
H     5.797000000     1.916000000    -1.379000000
O     5.710000000    -0.133000000     3.397000000
H     4.848000000    -0.339000000     3.759000000
H     5.736000000    -0.597000000     2.560000000
O    -5.285000000    -4.452000000    -1.481000000
H    -5.447000000    -3.595000000    -1.874000000
H    -5.646000000    -4.383000000    -0.597000000
O     3.449000000    -0.574000000     5.064000000
H     3.481000000     0.328000000     5.383000000
H     3.779000000    -1.099000000     5.793000000
O    -4.893000000     1.379000000    -4.021000000
H    -3.960000000     1.247000000    -4.190000000
H    -4.934000000     1.652000000    -3.104000000
O    -4.751000000     0.085000000     0.509000000
H    -4.712000000    -0.080000000    -0.433000000
H    -5.558000000    -0.344000000     0.794000000
O     4.829000000    -3.009000000    -3.006000000
H     4.359000000    -3.203000000    -2.195000000
H     4.657000000    -3.764000000    -3.568000000
O     3.172000000     2.191000000     5.726000000
H     2.724000000     2.928000000     5.310000000
H     3.329000000     2.482000000     6.624000000
O    -1.516000000     3.795000000    -2.410000000
H    -2.053000000     3.160000000    -2.884000000
H    -1.152000000     4.358000000    -3.092000000
O     3.357000000    -1.390000000    -4.957000000
H     4.122000000    -1.808000000    -5.352000000
H     3.620000000    -1.213000000    -4.054000000
O     6.101000000    -1.256000000     0.877000000
H     5.339000000    -1.767000000     0.604000000
H     6.384000000    -0.805000000     0.081000000
O     0.757000000     1.036000000    -3.027000000
H     0.657000000     1.820000000    -2.488000000
H     1.455000000     0.539000000    -2.600000000
O     3.201000000     0.165000000    -1.880000000
H     2.743000000    -0.060000000    -1.071000000
H     4.085000000     0.400000000    -1.597000000
O    -2.034000000     0.121000000    -7.211000000
H    -1.153000000     0.241000000    -6.857000000
H    -2.529000000    -0.275000000    -6.493000000
O     3.074000000    -4.012000000    -0.785000000
H     2.809000000    -4.291000000     0.091000000
H     2.279000000    -4.091000000    -1.312000000
O     1.352000000     5.583000000    -2.035000000
H     0.705000000     5.287000000    -1.394000000
H     0.831000000     5.899000000    -2.773000000
O     3.717000000     3.646000000     2.698000000
H     4.031000000     4.258000000     2.032000000
H     2.879000000     4.009000000     2.981000000
O     0.634000000    -6.597000000     0.697000000
H     0.215000000    -6.250000000    -0.090000000
H     0.967000000    -5.824000000     1.152000000
O     5.919000000     4.096000000     4.384000000
H     5.197000000     3.844000000     3.809000000
H     5.508000000     4.627000000     5.066000000
O     0.166000000    -2.080000000    -4.237000000
H     0.232000000    -1.138000000    -4.081000000
H    -0.243000000    -2.426000000    -3.444000000
O     1.605000000     6.630000000     0.896000000
H     1.040000000     5.943000000     0.541000000
H     1.062000000     7.419000000     0.879000000
O    -3.228000000    -5.963000000    -6.021000000
H    -3.381000000    -5.197000000    -6.574000000
H    -2.691000000    -5.635000000    -5.300000000
O     5.596000000     2.022000000     1.693000000
H     5.959000000     1.404000000     2.328000000
H     4.924000000     2.498000000     2.180000000
O     0.801000000     0.763000000     6.722000000
H     1.380000000     0.842000000     5.964000000
H     0.408000000    -0.106000000     6.634000000
O     4.144000000     5.570000000     1.054000000
H     4.375000000     5.934000000     0.200000000
H     3.239000000     5.847000000     1.196000000
O    -2.737000000    -4.505000000    -3.774000000
H    -2.318000000    -3.668000000    -3.572000000
H    -3.333000000    -4.658000000    -3.041000000
O     1.399000000     4.842000000     3.478000000
H     0.442000000     4.816000000     3.449000000
H     1.616000000     5.770000000     3.397000000
O    -6.105000000    -2.007000000    -4.255000000
H    -6.117000000    -2.914000000    -4.560000000
H    -6.935000000    -1.641000000    -4.560000000
O    -2.039000000    -3.750000000     2.332000000
H    -1.179000000    -3.604000000     2.726000000
H    -2.427000000    -2.877000000     2.273000000
O    -5.248000000    -1.082000000    -1.955000000
H    -4.329000000    -1.295000000    -2.114000000
H    -5.710000000    -1.429000000    -2.718000000
O    -1.952000000     3.797000000     2.530000000
H    -1.655000000     4.704000000     2.604000000
H    -2.481000000     3.654000000     3.315000000
O     2.821000000    -2.139000000     2.894000000
H     3.089000000    -1.729000000     3.717000000
H     1.864000000    -2.105000000     2.911000000
O    -2.279000000    -6.383000000     1.285000000
H    -1.524000000    -5.950000000     0.888000000
H    -2.642000000    -5.731000000     1.885000000
O    -0.109000000    -5.258000000    -5.444000000
H    -0.928000000    -4.822000000    -5.209000000
H     0.508000000    -4.543000000    -5.598000000
O    -1.492000000     0.699000000     3.958000000
H    -0.914000000     1.266000000     3.448000000
H    -2.119000000     1.299000000     4.363000000
O    -0.179000000    -5.230000000    -1.726000000
H    -0.381000000    -4.352000000    -2.049000000
H    -0.554000000    -5.818000000    -2.382000000
O    -2.712000000    -3.313000000    -7.307000000
H    -1.920000000    -3.348000000    -7.844000000
H    -2.554000000    -2.593000000    -6.696000000
O     0.117000000    -1.738000000     3.543000000
H     0.182000000    -1.703000000     4.498000000
H    -0.176000000    -0.862000000     3.291000000
O    -0.619000000     5.131000000    -0.091000000
H    -1.344000000     5.126000000     0.534000000
H    -0.871000000     4.490000000    -0.756000000
O     1.462000000    -2.563000000    -6.931000000
H     2.360000000    -2.257000000    -7.058000000
H     1.268000000    -2.363000000    -6.016000000
O    -3.280000000    -1.340000000     2.305000000
H    -3.540000000    -0.886000000     1.504000000
H    -2.891000000    -0.658000000     2.852000000
O     2.238000000    -4.678000000     1.851000000
H     2.593000000    -4.012000000     2.440000000
H     2.704000000    -5.480000000     2.087000000
O    -3.222000000    -1.412000000    -5.312000000
H    -2.910000000    -1.383000000    -4.407000000
H    -3.998000000    -1.971000000    -5.280000000
O    -4.102000000     2.859000000     0.861000000
H    -3.438000000     3.331000000     1.365000000
H    -4.073000000     1.966000000     1.205000000
