161
-3041.46979
C     0.126000000    -1.218000000    -0.830000000
H     0.263000000    -2.173000000    -1.331000000
C     0.977000000    -0.836000000     0.269000000
H     1.890000000    -1.401000000     0.440000000
C     0.718000000     0.361000000     0.949000000
C     1.650000000     0.775000000     2.031000000
H     2.404000000     1.423000000     1.579000000
H     1.088000000     1.292000000     2.811000000
H     2.173000000    -0.034000000     2.546000000
C    -0.326000000     1.163000000     0.577000000
H    -0.642000000     2.103000000     1.025000000
C    -1.209000000     0.732000000    -0.431000000
H    -2.032000000     1.408000000    -0.650000000
C    -0.952000000    -0.414000000    -1.191000000
C    -1.783000000    -0.866000000    -2.317000000
O    -2.826000000    -0.377000000    -2.624000000
O    -1.518000000    -1.942000000    -2.851000000
O    -0.392000000    -5.607000000    -4.114000000
H    -0.502000000    -4.678000000    -4.315000000
H     0.213000000    -5.926000000    -4.784000000
O    -3.190000000     2.230000000    -2.763000000
H    -3.954000000     2.293000000    -2.190000000
H    -3.171000000     1.313000000    -3.038000000
O    -5.216000000     2.895000000    -1.047000000
H    -4.877000000     2.414000000    -0.293000000
H    -6.167000000     2.853000000    -0.951000000
O    -2.842000000    -0.037000000    -5.438000000
H    -2.714000000    -0.347000000    -4.542000000
H    -3.073000000     0.887000000    -5.342000000
O     4.216000000     0.676000000    -0.604000000
H     4.661000000     1.002000000     0.178000000
H     3.489000000     1.284000000    -0.737000000
O     6.250000000    -1.051000000     3.182000000
H     5.395000000    -0.700000000     3.433000000
H     6.047000000    -1.835000000     2.672000000
O     5.915000000     1.920000000     1.171000000
H     6.565000000     1.476000000     1.715000000
H     5.504000000     2.555000000     1.758000000
O    -5.167000000    -4.268000000    -2.987000000
H    -4.852000000    -3.392000000    -3.208000000
H    -4.942000000    -4.378000000    -2.063000000
O     4.104000000     0.069000000     4.411000000
H     3.689000000     0.930000000     4.455000000
H     3.519000000    -0.505000000     4.905000000
O    -4.211000000    -0.878000000     2.071000000
H    -4.703000000    -0.855000000     1.250000000
H    -4.790000000    -1.332000000     2.684000000
O     2.963000000    -2.557000000    -2.303000000
H     2.845000000    -3.480000000    -2.081000000
H     3.642000000    -2.251000000    -1.702000000
O     2.692000000     2.382000000     4.802000000
H     2.035000000     2.539000000     5.480000000
H     2.656000000     3.161000000     4.247000000
O    -2.357000000     4.852000000     1.347000000
H    -2.880000000     4.056000000     1.248000000
H    -2.409000000     5.058000000     2.280000000
O     5.026000000    -1.861000000    -0.616000000
H     4.780000000    -0.937000000    -0.645000000
H     5.971000000    -1.852000000    -0.463000000
O    -0.408000000     2.890000000    -2.883000000
H    -0.361000000     3.178000000    -3.795000000
H    -1.316000000     2.612000000    -2.766000000
O     4.197000000    -0.162000000    -3.362000000
H     4.374000000     0.077000000    -2.452000000
H     3.759000000    -1.011000000    -3.306000000
O     3.705000000    -6.013000000     0.763000000
H     2.882000000    -6.491000000     0.667000000
H     3.509000000    -5.325000000     1.399000000
O    -4.049000000    -1.704000000    -7.262000000
H    -3.656000000    -1.138000000    -6.597000000
H    -3.331000000    -1.902000000    -7.863000000
O     2.285000000    -5.219000000    -1.828000000
H     2.403000000    -6.052000000    -1.372000000
H     1.915000000    -5.461000000    -2.677000000
O     2.482000000     4.667000000     2.851000000
H     2.514000000     5.582000000     3.130000000
H     2.197000000     4.705000000     1.938000000
O    -1.314000000    -6.349000000     0.188000000
H    -1.518000000    -5.636000000    -0.417000000
H    -1.854000000    -6.172000000     0.958000000
O     0.641000000    -2.833000000    -4.194000000
H    -0.104000000    -2.461000000    -3.724000000
H     1.287000000    -3.018000000    -3.512000000
O     4.982000000     3.520000000     3.050000000
H     4.270000000     4.156000000     2.987000000
H     4.988000000     3.258000000     3.970000000
O    -0.226000000     1.935000000     6.220000000
H    -0.841000000     1.614000000     6.880000000
H    -0.037000000     2.835000000     6.485000000
O     2.544000000     4.705000000    -0.081000000
H     2.504000000     3.778000000    -0.314000000
H     1.896000000     5.123000000    -0.649000000
O    -4.242000000    -2.151000000    -4.263000000
H    -3.849000000    -1.988000000    -5.120000000
H    -3.499000000    -2.189000000    -3.661000000
O    -0.281000000     5.869000000     4.001000000
H    -0.999000000     6.129000000     3.424000000
H     0.331000000     6.604000000     3.969000000
O    -3.738000000     5.662000000    -2.127000000
H    -3.901000000     4.735000000    -2.299000000
H    -2.808000000     5.705000000    -1.907000000
O     4.458000000     0.375000000     7.414000000
H     4.716000000     1.247000000     7.713000000
H     4.484000000     0.431000000     6.459000000
O     2.209000000     2.336000000    -1.824000000
H     1.277000000     2.237000000    -2.017000000
H     2.622000000     2.435000000    -2.682000000
O    -7.675000000    -1.927000000    -2.153000000
H    -6.770000000    -1.778000000    -2.427000000
H    -8.195000000    -1.374000000    -2.736000000
O    -2.504000000    -4.108000000     1.417000000
H    -3.182000000    -3.897000000     0.776000000
H    -2.204000000    -3.257000000     1.737000000
O    -4.894000000    -0.915000000    -0.981000000
H    -4.078000000    -0.615000000    -1.382000000
H    -4.910000000    -1.858000000    -1.146000000
O     0.234000000    -4.086000000     2.729000000
H    -0.571000000    -4.374000000     2.297000000
H     0.636000000    -4.894000000     3.049000000
O     5.679000000    -3.167000000     1.840000000
H     4.757000000    -3.422000000     1.822000000
H     5.952000000    -3.191000000     0.922000000
O     3.076000000    -3.408000000     5.505000000
H     3.237000000    -3.100000000     6.397000000
H     2.236000000    -3.017000000     5.265000000
O     5.231000000     6.035000000     0.838000000
H     4.472000000     5.505000000     0.595000000
H     5.197000000     6.788000000     0.248000000
O    -3.416000000    -1.279000000     5.419000000
H    -2.626000000    -0.972000000     4.973000000
H    -3.115000000    -2.002000000     5.969000000
O    -0.938000000    -0.051000000     4.438000000
H    -0.816000000     0.571000000     3.721000000
H    -0.876000000     0.481000000     5.231000000
O     0.230000000     7.443000000     0.964000000
H     0.315000000     7.091000000     0.078000000
H    -0.512000000     6.970000000     1.339000000
O    -1.634000000    -4.444000000    -1.871000000
H    -1.741000000    -3.557000000    -2.217000000
H    -1.210000000    -4.927000000    -2.580000000
O     0.966000000    -2.177000000     4.550000000
H     0.649000000    -2.608000000     3.756000000
H     0.302000000    -1.516000000     4.744000000
O    -0.707000000     5.236000000    -1.234000000
H    -0.506000000     4.393000000    -1.641000000
H    -0.955000000     5.015000000    -0.336000000
O     1.204000000    -1.896000000    -6.573000000
H     2.039000000    -2.322000000    -6.768000000
H     0.915000000    -2.300000000    -5.755000000
O    -1.605000000    -1.714000000     1.859000000
H    -2.395000000    -1.184000000     1.963000000
H    -1.021000000    -1.171000000     1.329000000
O     2.906000000    -3.312000000     2.303000000
H     2.289000000    -3.259000000     1.573000000
H     2.361000000    -3.220000000     3.085000000
O    -6.614000000     0.811000000    -3.591000000
H    -6.898000000     1.291000000    -2.813000000
H    -5.659000000     0.866000000    -3.570000000
O    -3.945000000     2.093000000     1.587000000
H    -4.283000000     1.206000000     1.706000000
H    -4.358000000     2.603000000     2.284000000
