161
-3018.09257
C     0.701000000    -1.279000000     0.020000000
H     1.334000000    -2.159000000     0.091000000
C     1.068000000    -0.143000000     0.722000000
H     1.987000000    -0.140000000     1.302000000
C     0.410000000     1.036000000     0.562000000
C     1.032000000     2.294000000     1.110000000
H     1.922000000     1.979000000     1.659000000
H     1.297000000     2.991000000     0.312000000
H     0.413000000     2.859000000     1.811000000
C    -0.716000000     1.045000000    -0.233000000
H    -1.366000000     1.915000000    -0.290000000
C    -1.308000000    -0.126000000    -0.772000000
H    -2.264000000    -0.095000000    -1.288000000
C    -0.573000000    -1.335000000    -0.647000000
C    -1.135000000    -2.591000000    -1.307000000
O    -2.246000000    -2.585000000    -1.698000000
O    -0.557000000    -3.669000000    -1.347000000
O    -0.705000000     6.801000000    -1.715000000
H    -0.526000000     7.735000000    -1.611000000
H    -0.701000000     6.454000000    -0.823000000
O     4.161000000     4.604000000     1.903000000
H     3.904000000     4.404000000     1.003000000
H     3.513000000     5.243000000     2.200000000
O    -1.835000000    -5.286000000     0.213000000
H    -1.403000000    -4.793000000    -0.484000000
H    -1.176000000    -5.353000000     0.904000000
O    -5.904000000     1.374000000    -1.166000000
H    -5.996000000     0.730000000    -0.465000000
H    -6.241000000     2.187000000    -0.791000000
O     0.749000000    -3.426000000     3.511000000
H     0.885000000    -3.873000000     2.676000000
H     1.627000000    -3.335000000     3.880000000
O    -5.350000000     3.185000000     1.098000000
H    -4.585000000     2.660000000     1.335000000
H    -6.067000000     2.806000000     1.606000000
O     2.884000000     0.337000000     3.677000000
H     3.062000000     1.190000000     4.073000000
H     3.513000000     0.270000000     2.959000000
O     4.070000000    -1.792000000    -1.723000000
H     3.356000000    -1.176000000    -1.885000000
H     4.827000000    -1.402000000    -2.159000000
O     0.510000000     3.551000000     7.222000000
H     0.448000000     2.940000000     7.956000000
H     0.324000000     3.017000000     6.450000000
O    -3.946000000    -0.536000000    -3.257000000
H    -3.815000000    -0.774000000    -2.339000000
H    -4.874000000    -0.310000000    -3.316000000
O    -5.189000000    -4.971000000    -1.149000000
H    -5.339000000    -5.913000000    -1.074000000
H    -4.435000000    -4.895000000    -1.734000000
O     1.217000000     4.891000000    -2.634000000
H     0.886000000     4.025000000    -2.871000000
H     0.439000000     5.379000000    -2.363000000
O     4.388000000     0.554000000     0.353000000
H     3.708000000     0.216000000    -0.229000000
H     4.531000000     1.454000000     0.058000000
O     3.380000000     5.241000000    -0.834000000
H     2.761000000     4.900000000    -1.479000000
H     4.050000000     5.683000000    -1.356000000
O    -2.432000000    -7.815000000    -0.783000000
H    -2.289000000    -6.872000000    -0.697000000
H    -1.552000000    -8.190000000    -0.802000000
O     0.119000000    -8.162000000    -0.978000000
H     0.681000000    -7.395000000    -0.864000000
H     0.693000000    -8.826000000    -1.358000000
O    -0.449000000     5.334000000     2.285000000
H    -0.711000000     6.207000000     1.995000000
H     0.503000000     5.386000000     2.373000000
O    -4.626000000    -2.027000000    -0.787000000
H    -4.941000000    -2.931000000    -0.770000000
H    -3.706000000    -2.099000000    -1.040000000
O    -2.972000000    -5.099000000    -2.580000000
H    -2.351000000    -5.218000000    -3.298000000
H    -2.779000000    -4.225000000    -2.239000000
O    -2.104000000     3.967000000     4.032000000
H    -1.907000000     4.688000000     3.434000000
H    -1.311000000     3.431000000     4.030000000
O     2.253000000     6.308000000     2.609000000
H     2.291000000     6.999000000     1.947000000
H     2.238000000     6.777000000     3.443000000
O     2.161000000    -7.796000000    -3.498000000
H     1.532000000    -7.337000000    -2.941000000
H     3.002000000    -7.681000000    -3.056000000
O     3.323000000     2.806000000     4.817000000
H     3.294000000     2.655000000     5.762000000
H     3.376000000     3.757000000     4.728000000
O     2.486000000    -1.319000000     6.251000000
H     2.726000000    -2.216000000     6.485000000
H     2.653000000    -1.263000000     5.310000000
O     0.616000000     2.366000000     4.654000000
H     0.271000000     1.561000000     4.267000000
H     1.549000000     2.352000000     4.444000000
O     1.489000000    -5.156000000    -1.324000000
H     0.922000000    -4.406000000    -1.503000000
H     2.263000000    -5.006000000    -1.867000000
O     0.301000000    -1.486000000    -5.423000000
H     0.961000000    -0.816000000    -5.599000000
H    -0.478000000    -0.993000000    -5.165000000
O    -1.988000000    -2.944000000     2.861000000
H    -1.034000000    -2.984000000     2.930000000
H    -2.151000000    -2.465000000     2.049000000
O    -2.650000000     0.144000000     4.645000000
H    -1.756000000     0.320000000     4.354000000
H    -2.662000000     0.418000000     5.562000000
O    -3.494000000    -2.323000000    -5.521000000
H    -4.136000000    -1.980000000    -6.142000000
H    -3.725000000    -1.914000000    -4.687000000
O     6.875000000     2.453000000     1.443000000
H     6.598000000     2.604000000     0.539000000
H     6.063000000     2.472000000     1.949000000
O    -4.441000000    -4.787000000    -5.488000000
H    -3.903000000    -4.025000000    -5.702000000
H    -4.429000000    -4.828000000    -4.532000000
O    -4.694000000     6.267000000    -1.210000000
H    -4.214000000     5.442000000    -1.287000000
H    -4.484000000     6.742000000    -2.013000000
O    -0.382000000    -4.581000000    -3.835000000
H     0.180000000    -3.870000000    -4.144000000
H    -0.460000000    -4.432000000    -2.893000000
O    -4.165000000     3.499000000    -1.795000000
H    -3.223000000     3.338000000    -1.834000000
H    -4.522000000     2.728000000    -1.354000000
O    -5.230000000    -0.173000000     1.033000000
H    -4.485000000     0.273000000     1.435000000
H    -4.838000000    -0.878000000     0.517000000
O    -3.186000000     1.083000000     1.960000000
H    -3.055000000     0.760000000     2.851000000
H    -2.302000000     1.253000000     1.634000000
O     7.301000000    -0.158000000    -0.160000000
H     7.548000000     0.610000000     0.356000000
H     6.425000000    -0.384000000     0.151000000
O    -3.801000000    -5.184000000     2.061000000
H    -3.295000000    -4.672000000     2.692000000
H    -3.214000000    -5.290000000     1.313000000
O     2.587000000     0.420000000    -2.065000000
H     2.553000000     0.649000000    -2.994000000
H     1.765000000     0.754000000    -1.705000000
O     0.338000000     2.331000000    -3.780000000
H    -0.436000000     1.840000000    -4.055000000
H     1.076000000     1.826000000    -4.124000000
O    -1.371000000     3.569000000    -2.037000000
H    -0.793000000     2.941000000    -2.469000000
H    -1.527000000     4.245000000    -2.697000000
O     2.880000000     7.750000000     0.249000000
H     2.907000000     8.021000000    -0.668000000
H     2.943000000     6.796000000     0.219000000
O    -1.748000000     0.588000000    -4.694000000
H    -2.473000000     0.591000000    -4.068000000
H    -2.085000000     1.065000000    -5.452000000
O     5.486000000    -3.923000000    -1.789000000
H     4.977000000    -3.114000000    -1.738000000
H     5.645000000    -4.164000000    -0.876000000
O    -0.192000000    -0.042000000     3.464000000
H     0.299000000    -0.213000000     2.661000000
H    -0.065000000    -0.828000000     3.995000000
O     1.212000000    -4.749000000     1.347000000
H     1.843000000    -5.417000000     1.615000000
H     1.126000000    -4.866000000     0.401000000
O     5.677000000     1.517000000     4.198000000
H     4.930000000     2.094000000     4.359000000
H     5.668000000     0.904000000     4.933000000
