161
-3059.81831
C     0.471000000    -1.339000000     0.334000000
H     0.833000000    -2.324000000     0.619000000
C     1.120000000    -0.210000000     0.681000000
H     2.056000000    -0.169000000     1.231000000
C     0.593000000     1.019000000     0.324000000
C     1.292000000     2.314000000     0.709000000
H     0.917000000     3.151000000     0.117000000
H     1.219000000     2.374000000     1.797000000
H     2.331000000     2.042000000     0.512000000
C    -0.520000000     1.079000000    -0.408000000
H    -1.010000000     1.977000000    -0.776000000
C    -1.200000000    -0.067000000    -0.778000000
H    -2.116000000     0.004000000    -1.358000000
C    -0.727000000    -1.326000000    -0.344000000
C    -1.517000000    -2.518000000    -0.793000000
O    -2.510000000    -2.377000000    -1.463000000
O    -1.240000000    -3.637000000    -0.401000000
O    -5.278000000    -0.122000000    -5.435000000
H    -4.867000000    -0.373000000    -4.608000000
H    -4.585000000     0.329000000    -5.919000000
O    -0.434000000     1.984000000    -3.424000000
H    -0.655000000     2.688000000    -4.034000000
H    -1.206000000     1.902000000    -2.863000000
O     0.695000000    -3.798000000    -3.142000000
H     0.694000000    -2.910000000    -2.783000000
H     1.469000000    -3.828000000    -3.704000000
O     3.176000000     4.426000000     2.662000000
H     2.985000000     5.359000000     2.571000000
H     3.986000000     4.298000000     2.169000000
O     3.983000000     2.861000000    -1.917000000
H     4.238000000     2.872000000    -0.994000000
H     3.333000000     3.559000000    -1.993000000
O    -5.479000000     2.575000000    -3.115000000
H    -5.996000000     2.175000000    -2.416000000
H    -5.937000000     2.331000000    -3.920000000
O    -1.132000000     4.790000000    -4.362000000
H    -1.602000000     4.343000000    -5.066000000
H    -1.525000000     5.662000000    -4.328000000
O     0.985000000     7.362000000     1.546000000
H     0.592000000     6.736000000     0.938000000
H     0.640000000     8.211000000     1.270000000
O     6.108000000    -2.272000000    -0.158000000
H     6.599000000    -1.454000000    -0.076000000
H     5.735000000    -2.415000000     0.712000000
O    -2.795000000     4.080000000    -1.731000000
H    -3.574000000     4.637000000    -1.739000000
H    -2.357000000     4.269000000    -2.560000000
O    -3.698000000    -5.829000000     1.809000000
H    -3.211000000    -6.467000000     1.287000000
H    -3.890000000    -5.117000000     1.198000000
O    -7.135000000    -1.890000000    -2.017000000
H    -7.848000000    -2.374000000    -2.433000000
H    -7.041000000    -2.296000000    -1.155000000
O    -1.833000000     4.321000000     5.922000000
H    -2.659000000     4.643000000     5.563000000
H    -1.311000000     4.092000000     5.153000000
O    -1.773000000    -6.044000000    -0.418000000
H    -1.061000000    -6.329000000    -0.991000000
H    -1.720000000    -5.088000000    -0.428000000
O     5.297000000    -2.935000000     2.249000000
H     6.069000000    -2.991000000     2.813000000
H     4.598000000    -2.635000000     2.829000000
O     3.581000000    -0.943000000     3.751000000
H     3.150000000    -1.713000000     4.123000000
H     3.003000000    -0.214000000     3.973000000
O    -5.679000000    -4.506000000    -2.504000000
H    -4.778000000    -4.418000000    -2.815000000
H    -6.202000000    -4.031000000    -3.150000000
O     3.253000000     0.442000000    -3.054000000
H     3.433000000     1.302000000    -2.674000000
H     4.057000000    -0.057000000    -2.910000000
O     4.846000000     0.965000000     2.235000000
H     3.991000000     1.321000000     2.480000000
H     4.793000000     0.037000000     2.463000000
O    -3.690000000    -7.830000000    -1.437000000
H    -3.906000000    -8.248000000    -0.604000000
H    -3.223000000    -7.031000000    -1.191000000
O     1.311000000     4.111000000    -2.944000000
H     0.565000000     4.405000000    -3.467000000
H     1.101000000     3.205000000    -2.716000000
O     0.302000000    -5.601000000     3.251000000
H    -0.358000000    -5.202000000     2.684000000
H     1.133000000    -5.433000000     2.807000000
O    -0.385000000     0.767000000     3.772000000
H     0.476000000     1.094000000     4.030000000
H    -0.274000000    -0.182000000     3.717000000
O    -3.121000000    -0.005000000     2.282000000
H    -3.324000000     0.224000000     1.375000000
H    -2.173000000    -0.141000000     2.288000000
O    -0.790000000     5.280000000     0.426000000
H    -1.051000000     5.090000000     1.327000000
H    -1.483000000     4.896000000    -0.111000000
O    -4.193000000    -3.344000000     0.888000000
H    -3.686000000    -3.241000000     0.082000000
H    -4.303000000    -2.452000000     1.218000000
O    -1.365000000    -3.806000000     2.141000000
H    -2.279000000    -4.045000000     2.295000000
H    -1.248000000    -3.904000000     1.196000000
O    -2.071000000     2.788000000     2.103000000
H    -1.713000000     1.938000000     2.356000000
H    -1.583000000     3.421000000     2.630000000
O     0.334000000    -6.558000000    -2.592000000
H     1.235000000    -6.823000000    -2.773000000
H     0.320000000    -5.618000000    -2.772000000
O     2.886000000    -3.553000000     4.318000000
H     3.629000000    -3.919000000     4.797000000
H     2.824000000    -4.087000000     3.526000000
O     0.391000000    -2.165000000     3.913000000
H     1.218000000    -2.622000000     4.068000000
H    -0.157000000    -2.806000000     3.461000000
O     2.650000000     1.512000000     4.035000000
H     3.108000000     1.502000000     4.875000000
H     2.770000000     2.404000000     3.707000000
O     1.748000000    -4.575000000    -0.406000000
H     2.033000000    -4.774000000    -1.297000000
H     0.907000000    -4.131000000    -0.517000000
O    -2.980000000     1.455000000    -3.467000000
H    -3.380000000     2.206000000    -3.029000000
H    -3.639000000     0.764000000    -3.409000000
O    -4.164000000    -6.113000000    -4.831000000
H    -3.586000000    -5.706000000    -4.185000000
H    -3.716000000    -5.983000000    -5.667000000
O    -4.453000000     3.270000000     0.520000000
H    -3.902000000     3.072000000     1.277000000
H    -3.880000000     3.756000000    -0.073000000
O     1.043000000    -1.021000000    -2.912000000
H     0.376000000    -0.352000000    -2.756000000
H     1.868000000    -0.596000000    -2.676000000
O     2.574000000     6.475000000    -2.589000000
H     3.015000000     6.437000000    -1.741000000
H     2.108000000     5.641000000    -2.654000000
O    -0.190000000     4.237000000     3.747000000
H     0.145000000     5.134000000     3.770000000
H     0.558000000     3.695000000     3.996000000
O    -4.331000000     0.499000000    -0.224000000
H    -4.967000000     1.188000000    -0.029000000
H    -3.739000000     0.893000000    -0.864000000
O    -2.552000000    -3.013000000    -5.262000000
H    -2.673000000    -3.620000000    -4.532000000
H    -2.039000000    -2.294000000    -4.893000000
O    -4.305000000    -1.298000000    -2.945000000
H    -5.095000000    -1.415000000    -2.418000000
H    -3.589000000    -1.551000000    -2.362000000
O    -1.568000000    -0.299000000    -5.216000000
H    -1.702000000     0.342000000    -4.518000000
H    -2.053000000     0.053000000    -5.962000000
O     1.808000000     1.366000000    -5.053000000
H     2.443000000     0.765000000    -4.664000000
H     1.263000000     1.649000000    -4.318000000
O     5.211000000     3.111000000     0.739000000
H     5.279000000     2.305000000     1.251000000
H     6.093000000     3.483000000     0.761000000
O    -2.901000000    -4.711000000    -2.773000000
H    -2.670000000    -3.805000000    -2.565000000
H    -2.531000000    -5.224000000    -2.054000000
O     3.000000000    -5.048000000     1.998000000
H     2.644000000    -4.880000000     1.126000000
H     3.929000000    -5.224000000     1.848000000
O    -5.260000000    -3.423000000    -5.469000000
H    -5.291000000    -2.492000000    -5.690000000
H    -4.337000000    -3.593000000    -5.277000000
