161
-3004.86490
C    -0.209000000    -1.178000000     0.937000000
H    -0.349000000    -1.966000000     1.673000000
C     0.566000000    -0.017000000     1.206000000
H     1.070000000     0.249000000     2.132000000
C     0.694000000     0.990000000     0.258000000
C     1.560000000     2.178000000     0.429000000
H     1.878000000     2.589000000    -0.532000000
H     1.065000000     2.934000000     1.041000000
H     2.434000000     1.834000000     0.986000000
C    -0.059000000     0.918000000    -0.915000000
H     0.072000000     1.692000000    -1.668000000
C    -0.779000000    -0.194000000    -1.230000000
H    -1.304000000    -0.319000000    -2.174000000
C    -0.854000000    -1.262000000    -0.280000000
C    -1.702000000    -2.535000000    -0.564000000
O    -2.434000000    -2.467000000    -1.522000000
O    -1.651000000    -3.447000000     0.218000000
O     0.547000000    -0.209000000    -3.987000000
H     1.172000000    -0.680000000    -3.436000000
H     0.505000000     0.668000000    -3.605000000
O     4.702000000     3.982000000    -1.744000000
H     5.141000000     3.393000000    -1.131000000
H     4.371000000     4.694000000    -1.197000000
O    -0.141000000     7.261000000     1.802000000
H     0.235000000     6.394000000     1.952000000
H    -0.882000000     7.309000000     2.407000000
O    -5.637000000    -3.873000000     1.830000000
H    -4.906000000    -3.298000000     2.056000000
H    -5.523000000    -4.051000000     0.897000000
O     5.801000000     2.338000000     0.144000000
H     6.723000000     2.088000000     0.088000000
H     5.497000000     1.953000000     0.966000000
O     3.343000000     4.514000000     1.240000000
H     3.363000000     3.781000000     0.625000000
H     4.019000000     4.305000000     1.884000000
O    -4.475000000    -7.294000000     2.142000000
H    -5.341000000    -6.973000000     2.393000000
H    -3.866000000    -6.658000000     2.518000000
O     3.826000000     2.260000000     5.113000000
H     3.478000000     1.414000000     5.397000000
H     3.855000000     2.787000000     5.912000000
O     3.202000000     1.220000000    -2.391000000
H     3.675000000     2.052000000    -2.415000000
H     3.540000000     0.775000000    -1.614000000
O    -1.364000000    -6.403000000    -0.399000000
H    -2.017000000    -6.445000000    -1.098000000
H    -1.474000000    -5.531000000    -0.020000000
O     4.072000000    -0.431000000    -0.186000000
H     4.977000000    -0.683000000    -0.002000000
H     3.847000000     0.181000000     0.515000000
O    -0.659000000     7.138000000    -0.705000000
H    -0.133000000     7.553000000    -0.021000000
H    -1.173000000     6.476000000    -0.244000000
O     3.879000000    -0.885000000     3.432000000
H     3.442000000    -1.568000000     2.923000000
H     4.789000000    -1.175000000     3.491000000
O    -3.939000000    -6.272000000    -1.873000000
H    -4.140000000    -7.049000000    -1.351000000
H    -3.428000000    -6.605000000    -2.611000000
O     4.737000000     1.595000000     2.561000000
H     4.270000000     2.198000000     3.139000000
H     4.352000000     0.738000000     2.748000000
O    -0.271000000    -7.891000000     1.317000000
H     0.657000000    -7.669000000     1.237000000
H    -0.730000000    -7.142000000     0.936000000
O     0.570000000    -3.918000000     5.714000000
H     0.620000000    -4.765000000     6.158000000
H     1.474000000    -3.720000000     5.472000000
O    -2.995000000    -5.238000000     3.401000000
H    -3.386000000    -4.473000000     2.979000000
H    -2.053000000    -5.067000000     3.380000000
O    -3.861000000    -2.105000000     5.293000000
H    -3.838000000    -2.363000000     4.372000000
H    -2.952000000    -1.896000000     5.507000000
O    -4.111000000    -0.333000000     0.058000000
H    -3.354000000    -0.470000000    -0.512000000
H    -4.300000000     0.603000000    -0.016000000
O    -2.712000000     4.897000000    -0.437000000
H    -3.238000000     5.232000000     0.290000000
H    -3.309000000     4.896000000    -1.185000000
O     5.859000000     4.307000000     2.643000000
H     6.159000000     3.435000000     2.898000000
H     5.932000000     4.829000000     3.442000000
O    -4.424000000    -3.957000000    -0.562000000
H    -3.631000000    -3.443000000    -0.717000000
H    -4.257000000    -4.792000000    -1.000000000
O    -1.176000000    -1.948000000     5.816000000
H    -0.502000000    -2.625000000     5.884000000
H    -1.341000000    -1.683000000     6.721000000
O    -3.085000000    -2.813000000     2.418000000
H    -2.807000000    -1.995000000     2.829000000
H    -2.454000000    -2.954000000     1.712000000
O    -2.424000000     1.917000000     1.118000000
H    -1.474000000     1.808000000     1.080000000
H    -2.569000000     2.492000000     1.869000000
O     0.191000000    -5.259000000    -2.380000000
H     0.252000000    -6.194000000    -2.575000000
H     1.094000000    -4.944000000    -2.430000000
O     2.635000000    -0.132000000     6.037000000
H     3.220000000    -0.799000000     5.677000000
H     2.037000000    -0.620000000     6.604000000
O     0.218000000     4.830000000    -2.966000000
H     0.157000000     5.300000000    -2.135000000
H     1.156000000     4.791000000    -3.152000000
O     2.882000000    -3.239000000     2.284000000
H     2.072000000    -3.636000000     1.963000000
H     3.451000000    -3.201000000     1.516000000
O     3.278000000    -3.811000000     5.013000000
H     3.846000000    -4.555000000     4.816000000
H     3.025000000    -3.469000000     4.156000000
O    -2.443000000     0.252000000     3.606000000
H    -2.173000000     0.450000000     2.709000000
H    -2.906000000     1.038000000     3.895000000
O     0.685000000    -4.392000000     1.073000000
H     0.889000000    -4.977000000     0.343000000
H    -0.036000000    -3.850000000     0.751000000
O    -1.833000000     1.478000000    -4.217000000
H    -1.781000000     2.067000000    -4.970000000
H    -1.582000000     0.623000000    -4.564000000
O    -2.914000000     3.197000000    -2.496000000
H    -2.325000000     2.582000000    -2.933000000
H    -2.517000000     3.339000000    -1.636000000
O     2.176000000    -1.401000000    -1.930000000
H     2.794000000    -1.163000000    -1.239000000
H     1.350000000    -1.000000000    -1.661000000
O     2.915000000     5.180000000    -3.660000000
H     2.709000000     5.974000000    -3.167000000
H     3.845000000     5.028000000    -3.491000000
O    -2.548000000    -4.966000000    -6.026000000
H    -1.746000000    -5.414000000    -6.298000000
H    -2.355000000    -4.644000000    -5.145000000
O    -4.574000000    -1.624000000    -3.124000000
H    -4.999000000    -1.103000000    -2.443000000
H    -3.854000000    -2.066000000    -2.674000000
O    -4.754000000     2.332000000    -0.414000000
H    -4.016000000     2.433000000     0.188000000
H    -4.540000000     2.900000000    -1.154000000
O    -6.617000000    -2.448000000    -1.011000000
H    -6.528000000    -1.509000000    -1.172000000
H    -5.769000000    -2.816000000    -1.261000000
O    -1.350000000    -1.572000000    -5.421000000
H    -1.492000000    -2.292000000    -4.806000000
H    -0.532000000    -1.167000000    -5.132000000
O     1.935000000     0.821000000    -6.378000000
H     2.704000000     1.239000000    -5.990000000
H     1.416000000     0.531000000    -5.627000000
O     1.263000000     5.155000000     2.769000000
H     1.640000000     4.958000000     3.627000000
H     1.936000000     4.886000000     2.144000000
O     0.957000000     1.920000000     7.137000000
H     1.776000000     2.272000000     7.486000000
H     1.229000000     1.199000000     6.569000000
O    -1.538000000    -3.653000000    -3.747000000
H    -1.744000000    -3.123000000    -2.977000000
H    -1.093000000    -4.424000000    -3.395000000
O    -0.455000000    -5.049000000     3.572000000
H    -0.129000000    -4.668000000     2.757000000
H    -0.014000000    -4.552000000     4.262000000
O    -5.167000000    -3.832000000    -4.941000000
H    -4.802000000    -3.282000000    -4.247000000
H    -4.496000000    -3.832000000    -5.624000000
