161
-3040.45799
C    -0.829000000     0.596000000     1.171000000
H    -1.301000000     0.979000000     2.072000000
C     0.212000000    -0.390000000     1.324000000
H     0.495000000    -0.737000000     2.315000000
C     0.928000000    -0.885000000     0.204000000
C     2.011000000    -1.820000000     0.181000000
H     1.611000000    -2.803000000    -0.075000000
H     2.651000000    -1.575000000    -0.669000000
H     2.537000000    -1.872000000     1.137000000
C     0.679000000    -0.257000000    -1.016000000
H     1.308000000    -0.422000000    -1.887000000
C    -0.419000000     0.605000000    -1.184000000
H    -0.577000000     0.956000000    -2.201000000
C    -1.190000000     1.031000000    -0.095000000
C    -2.364000000     1.953000000    -0.353000000
O    -2.765000000     2.171000000    -1.513000000
O    -2.979000000     2.462000000     0.593000000
O    -5.355000000    -1.193000000    -1.909000000
H    -6.175000000    -1.005000000    -1.453000000
H    -5.228000000    -2.135000000    -1.795000000
O    -3.401000000     4.005000000    -5.283000000
H    -3.938000000     3.549000000    -4.635000000
H    -2.554000000     4.120000000    -4.853000000
O    -5.645000000     2.473000000     0.865000000
H    -5.998000000     1.586000000     0.935000000
H    -4.754000000     2.350000000     0.539000000
O     1.631000000    -6.169000000     2.381000000
H     0.958000000    -5.515000000     2.568000000
H     1.250000000    -6.716000000     1.694000000
O     0.699000000     3.116000000     2.869000000
H    -0.251000000     3.084000000     2.754000000
H     0.850000000     3.903000000     3.391000000
O     3.061000000    -2.515000000     5.656000000
H     3.618000000    -2.714000000     4.902000000
H     3.662000000    -2.155000000     6.308000000
O    -1.988000000     3.495000000     2.846000000
H    -2.525000000     3.298000000     3.614000000
H    -2.448000000     3.076000000     2.119000000
O    -6.355000000     6.594000000     1.139000000
H    -5.575000000     7.119000000     0.956000000
H    -6.231000000     5.794000000     0.628000000
O     7.512000000    -0.289000000    -0.841000000
H     6.966000000    -1.053000000    -0.657000000
H     7.039000000     0.184000000    -1.526000000
O    -6.129000000     2.844000000    -5.730000000
H    -5.720000000     2.244000000    -6.354000000
H    -5.709000000     2.642000000    -4.894000000
O    -6.756000000    -0.078000000     1.786000000
H    -6.792000000    -0.380000000     2.694000000
H    -6.511000000    -0.856000000     1.285000000
O     0.047000000     4.276000000    -0.914000000
H    -0.768000000     4.675000000    -0.609000000
H     0.289000000     3.664000000    -0.219000000
O     2.004000000     2.226000000     0.493000000
H     1.666000000     1.340000000     0.619000000
H     1.744000000     2.697000000     1.285000000
O    -3.446000000     4.933000000    -0.326000000
H    -3.067000000     4.170000000     0.111000000
H    -3.566000000     4.654000000    -1.233000000
O     3.872000000    -4.655000000     0.719000000
H     3.775000000    -4.660000000     1.671000000
H     3.082000000    -5.088000000     0.395000000
O     2.593000000     4.630000000    -2.187000000
H     2.566000000     5.574000000    -2.342000000
H     1.710000000     4.411000000    -1.889000000
O    -7.794000000     4.085000000     0.120000000
H    -7.283000000     3.303000000     0.328000000
H    -8.177000000     4.350000000     0.957000000
O     0.893000000     2.507000000    -5.768000000
H     0.301000000     1.897000000    -6.209000000
H     0.345000000     3.262000000    -5.557000000
O    -1.826000000    -2.937000000    -0.868000000
H    -1.120000000    -3.287000000    -1.412000000
H    -1.821000000    -3.490000000    -0.086000000
O    -0.906000000     1.072000000     5.380000000
H    -0.397000000     0.374000000     4.968000000
H    -1.748000000     1.055000000     4.925000000
O    -1.733000000    -2.423000000     4.453000000
H    -2.461000000    -2.126000000     4.999000000
H    -1.028000000    -2.610000000     5.074000000
O     4.485000000     2.379000000    -0.723000000
H     4.544000000     2.325000000    -1.677000000
H     3.546000000     2.416000000    -0.543000000
O     5.142000000    -2.481000000    -0.455000000
H     4.559000000    -3.165000000    -0.126000000
H     5.352000000    -1.953000000     0.316000000
O     3.779000000    -1.596000000    -4.412000000
H     3.708000000    -1.335000000    -5.330000000
H     2.905000000    -1.914000000    -4.186000000
O    -0.493000000     6.374000000     2.691000000
H     0.081000000     6.610000000     3.420000000
H    -1.193000000     5.860000000     3.094000000
O     0.450000000     3.565000000     6.447000000
H     0.042000000     2.877000000     5.921000000
H    -0.282000000     4.102000000     6.749000000
O    -2.905000000    -2.193000000     2.059000000
H    -2.594000000    -2.305000000     2.957000000
H    -2.106000000    -2.141000000     1.534000000
O     2.778000000     1.996000000     4.259000000
H     2.502000000     2.147000000     5.163000000
H     2.085000000     2.390000000     3.729000000
O    -5.917000000     5.871000000    -3.668000000
H    -5.531000000     5.004000000    -3.547000000
H    -6.536000000     5.961000000    -2.944000000
O     5.227000000    -3.518000000    -3.176000000
H     5.078000000    -3.312000000    -2.253000000
H     4.771000000    -2.824000000    -3.653000000
O    -4.061000000    -0.213000000     3.730000000
H    -4.944000000    -0.559000000     3.863000000
H    -3.704000000    -0.739000000     3.015000000
O     5.492000000     0.077000000    -3.014000000
H     4.984000000     0.837000000    -3.299000000
H     5.015000000    -0.675000000    -3.366000000
O    -4.720000000     4.553000000     2.368000000
H    -5.329000000     3.820000000     2.279000000
H    -4.016000000     4.355000000     1.751000000
O    -1.444000000     3.563000000    -3.298000000
H    -0.756000000     3.979000000    -2.779000000
H    -2.015000000     3.148000000    -2.651000000
O    -4.842000000     3.141000000    -2.888000000
H    -5.606000000     2.600000000    -2.686000000
H    -4.143000000     2.781000000    -2.342000000
O    -3.226000000     0.209000000    -3.155000000
H    -3.862000000    -0.376000000    -2.742000000
H    -3.067000000     0.890000000    -2.502000000
O     0.473000000    -1.403000000     6.037000000
H     0.494000000    -1.425000000     6.994000000
H     1.371000000    -1.187000000     5.783000000
O    -0.597000000    -4.699000000     2.851000000
H    -0.738000000    -4.130000000     3.608000000
H    -1.375000000    -4.573000000     2.308000000
O    -1.526000000    -1.751000000    -3.262000000
H    -2.051000000    -0.970000000    -3.440000000
H    -1.493000000    -1.805000000    -2.307000000
O    -0.161000000    -4.796000000    -2.560000000
H     0.499000000    -5.040000000    -3.210000000
H    -0.889000000    -5.396000000    -2.720000000
O     4.020000000     2.458000000    -3.695000000
H     3.417000000     3.036000000    -3.227000000
H     3.613000000     2.332000000    -4.553000000
O    -3.904000000     7.614000000     0.010000000
H    -3.448000000     6.791000000    -0.165000000
H    -3.311000000     8.099000000     0.583000000
O    -4.341000000     5.955000000     4.640000000
H    -4.222000000     5.572000000     3.771000000
H    -4.515000000     5.205000000     5.210000000
O     1.080000000    -2.302000000    -4.256000000
H     1.062000000    -3.259000000    -4.221000000
H     0.253000000    -2.033000000    -3.855000000
O     4.278000000     0.319000000     2.317000000
H     3.602000000     0.602000000     1.701000000
H     4.013000000     0.698000000     3.155000000
O    -1.352000000     1.190000000    -6.144000000
H    -1.786000000     1.240000000    -5.293000000
H    -1.147000000     0.262000000    -6.255000000
O    -7.311000000     1.702000000    -2.768000000
H    -7.361000000     0.945000000    -2.184000000
H    -7.802000000     1.437000000    -3.546000000
O    -3.901000000     2.473000000     4.646000000
H    -4.819000000     2.647000000     4.852000000
H    -3.904000000     1.596000000     4.263000000
