161
-3035.18813
C    -0.416000000    -0.641000000     1.212000000
H    -0.634000000    -1.015000000     2.209000000
C     0.896000000    -0.604000000     0.780000000
H     1.725000000    -0.932000000     1.401000000
C     1.148000000     0.022000000    -0.453000000
C     2.575000000     0.294000000    -0.874000000
H     3.188000000    -0.576000000    -0.630000000
H     2.656000000     0.363000000    -1.961000000
H     3.159000000     1.002000000    -0.284000000
C     0.107000000     0.520000000    -1.225000000
H     0.281000000     1.021000000    -2.174000000
C    -1.248000000     0.425000000    -0.724000000
H    -2.045000000     0.826000000    -1.345000000
C    -1.526000000    -0.138000000     0.500000000
C    -2.928000000    -0.227000000     0.980000000
O    -3.638000000     0.718000000     0.772000000
O    -3.299000000    -1.052000000     1.808000000
O     2.016000000     3.207000000    -3.693000000
H     2.805000000     2.679000000    -3.812000000
H     1.295000000     2.604000000    -3.879000000
O     2.391000000     1.683000000    -6.951000000
H     2.278000000     2.631000000    -7.024000000
H     3.069000000     1.572000000    -6.285000000
O    -2.955000000     5.833000000     0.744000000
H    -3.579000000     6.557000000     0.691000000
H    -3.431000000     5.139000000     1.201000000
O    -7.173000000     0.199000000     4.036000000
H    -6.516000000     0.868000000     3.845000000
H    -7.338000000     0.287000000     4.975000000
O     2.267000000    -2.417000000     3.575000000
H     1.962000000    -2.890000000     2.801000000
H     2.981000000    -1.866000000     3.254000000
O     0.291000000     1.736000000     2.754000000
H    -0.352000000     2.052000000     2.119000000
H     0.869000000     1.166000000     2.245000000
O     3.634000000    -3.904000000    -3.948000000
H     2.999000000    -3.440000000    -3.403000000
H     4.205000000    -4.351000000    -3.324000000
O    -6.413000000     3.046000000     2.593000000
H    -6.141000000     3.919000000     2.874000000
H    -7.308000000     2.956000000     2.921000000
O     0.393000000     5.556000000    -3.703000000
H     0.997000000     6.279000000    -3.534000000
H     0.960000000     4.812000000    -3.903000000
O     5.579000000    -1.619000000     1.040000000
H     5.050000000    -2.176000000     0.469000000
H     6.130000000    -1.115000000     0.440000000
O    -5.725000000     1.024000000    -1.846000000
H    -6.633000000     1.149000000    -1.571000000
H    -5.206000000     1.423000000    -1.147000000
O     0.519000000     5.164000000     0.958000000
H     1.299000000     4.858000000     0.494000000
H    -0.194000000     4.634000000     0.603000000
O    -1.785000000     2.970000000     1.562000000
H    -1.951000000     3.091000000     0.626000000
H    -2.562000000     2.513000000     1.885000000
O     6.566000000     1.842000000     2.453000000
H     5.737000000     1.389000000     2.606000000
H     7.231000000     1.246000000     2.797000000
O     0.021000000     1.529000000    -5.071000000
H    -0.277000000     2.438000000    -5.085000000
H     0.195000000     1.320000000    -5.989000000
O     2.684000000     3.845000000    -0.017000000
H     3.541000000     3.769000000     0.404000000
H     2.440000000     2.943000000    -0.226000000
O    -0.567000000    -3.833000000     0.159000000
H    -1.490000000    -3.797000000     0.408000000
H    -0.513000000    -3.308000000    -0.639000000
O    -3.314000000    -3.483000000     1.032000000
H    -4.264000000    -3.583000000     1.099000000
H    -3.158000000    -2.555000000     1.207000000
O    -3.470000000    -5.614000000     3.053000000
H    -3.730000000    -6.534000000     3.034000000
H    -3.017000000    -5.476000000     2.221000000
O    -2.600000000    -2.682000000     4.109000000
H    -2.605000000    -1.970000000     3.469000000
H    -2.906000000    -3.445000000     3.619000000
O     6.693000000     1.960000000    -2.769000000
H     7.463000000     2.528000000    -2.716000000
H     7.052000000     1.082000000    -2.896000000
O    -1.351000000     4.547000000    -0.972000000
H    -1.001000000     5.199000000    -1.579000000
H    -1.795000000     5.061000000    -0.298000000
O     2.690000000    -0.925000000     6.120000000
H     2.873000000    -0.899000000     5.180000000
H     3.309000000    -1.567000000     6.467000000
O    -3.410000000     4.755000000     3.418000000
H    -3.660000000     3.832000000     3.377000000
H    -3.404000000     4.960000000     4.353000000
O    -4.720000000    -1.702000000    -1.557000000
H    -4.725000000    -1.476000000    -2.488000000
H    -5.159000000    -0.966000000    -1.131000000
O     5.119000000    -4.242000000    -1.609000000
H     4.952000000    -5.174000000    -1.751000000
H     6.014000000    -4.209000000    -1.269000000
O    -4.090000000     2.116000000     2.913000000
H    -3.838000000     1.375000000     2.361000000
H    -4.993000000     2.306000000     2.660000000
O    -8.230000000    -0.968000000    -0.258000000
H    -7.430000000    -1.074000000     0.256000000
H    -8.638000000    -0.177000000     0.096000000
O     1.413000000    -2.145000000    -3.564000000
H     1.077000000    -2.797000000    -4.179000000
H     0.677000000    -1.550000000    -3.419000000
O    -0.350000000    -2.867000000     6.001000000
H    -0.935000000    -2.937000000     5.247000000
H     0.503000000    -2.653000000     5.623000000
O    -2.264000000    -2.761000000    -2.096000000
H    -2.256000000    -1.814000000    -2.237000000
H    -3.191000000    -2.981000000    -2.000000000
O     2.171000000    -4.053000000     1.253000000
H     2.595000000    -4.663000000     0.650000000
H     1.303000000    -3.908000000     0.877000000
O     4.382000000     1.577000000    -4.565000000
H     4.552000000     0.664000000    -4.332000000
H     5.230000000     2.010000000    -4.470000000
O    -2.910000000     3.300000000    -2.786000000
H    -2.058000000     3.348000000    -2.354000000
H    -3.438000000     3.970000000    -2.352000000
O    -4.130000000     1.280000000    -4.245000000
H    -3.729000000     2.018000000    -3.785000000
H    -4.784000000     0.942000000    -3.632000000
O    -1.253000000     3.848000000    -5.193000000
H    -0.892000000     4.608000000    -4.737000000
H    -2.169000000     3.816000000    -4.917000000
O    -6.455000000    -4.005000000     3.410000000
H    -7.215000000    -3.448000000     3.577000000
H    -6.192000000    -3.788000000     2.515000000
O     4.500000000    -0.584000000     3.230000000
H     5.258000000    -0.273000000     3.724000000
H     4.874000000    -1.042000000     2.478000000
O    -0.715000000    -3.738000000    -3.933000000
H    -1.335000000    -3.925000000    -4.637000000
H    -1.255000000    -3.385000000    -3.226000000
O     5.045000000     4.105000000     1.524000000
H     5.641000000     3.520000000     1.992000000
H     5.284000000     4.982000000     1.826000000
O    -5.948000000    -0.761000000     1.231000000
H    -5.700000000    -1.228000000     2.029000000
H    -5.196000000    -0.202000000     1.037000000
O    -1.591000000    -0.498000000    -4.110000000
H    -2.424000000    -0.035000000    -4.195000000
H    -0.927000000     0.186000000    -4.191000000
O    -7.453000000     2.484000000    -0.087000000
H    -8.293000000     2.352000000     0.352000000
H    -6.879000000     2.834000000     0.595000000
O    -3.669000000     1.416000000     5.699000000
H    -4.081000000     1.877000000     4.969000000
H    -2.740000000     1.386000000     5.470000000
O     5.375000000    -1.534000000    -4.610000000
H     5.662000000    -1.571000000    -5.522000000
H     4.705000000    -2.215000000    -4.542000000
O    -1.305000000     1.856000000     4.959000000
H    -0.971000000     1.615000000     4.095000000
H    -0.832000000     2.658000000     5.183000000
O     7.376000000    -0.693000000    -2.952000000
H     6.649000000    -1.011000000    -3.487000000
H     8.156000000    -0.877000000    -3.476000000
O     7.210000000    -0.076000000    -0.341000000
H     7.605000000     0.763000000    -0.106000000
H     7.384000000    -0.169000000    -1.278000000
