161
-3051.58202
C    -1.165000000    -0.130000000     0.883000000
H    -1.964000000    -0.320000000     1.595000000
C     0.147000000    -0.273000000     1.307000000
H     0.418000000    -0.460000000     2.343000000
C     1.148000000    -0.196000000     0.320000000
C     2.633000000    -0.303000000     0.717000000
H     3.212000000     0.612000000     0.579000000
H     2.714000000    -0.532000000     1.782000000
H     2.990000000    -1.177000000     0.168000000
C     0.871000000     0.145000000    -0.965000000
H     1.725000000     0.436000000    -1.571000000
C    -0.451000000     0.336000000    -1.364000000
H    -0.758000000     0.772000000    -2.311000000
C    -1.504000000     0.148000000    -0.450000000
C    -2.960000000     0.329000000    -0.879000000
O    -3.258000000     0.577000000    -2.096000000
O    -3.790000000     0.032000000    -0.063000000
O     3.006000000     2.865000000    -2.391000000
H     3.913000000     2.987000000    -2.672000000
H     2.738000000     2.040000000    -2.795000000
O    -5.266000000     1.877000000    -5.172000000
H    -5.710000000     1.536000000    -5.948000000
H    -5.737000000     1.488000000    -4.435000000
O    -5.473000000     0.487000000     1.848000000
H    -4.855000000     0.314000000     1.139000000
H    -6.229000000     0.886000000     1.416000000
O    -2.859000000     3.293000000     1.043000000
H    -2.275000000     3.577000000     0.339000000
H    -3.216000000     2.460000000     0.737000000
O     1.121000000    -1.984000000     5.680000000
H     0.350000000    -1.649000000     5.222000000
H     1.723000000    -2.239000000     4.980000000
O    -3.538000000     0.444000000     3.918000000
H    -4.270000000    -0.055000000     4.280000000
H    -3.921000000     0.938000000     3.193000000
O     5.164000000    -0.298000000    -1.490000000
H     4.312000000    -0.332000000    -1.924000000
H     5.503000000    -1.191000000    -1.557000000
O    -3.858000000     0.892000000    -7.501000000
H    -4.726000000     1.211000000    -7.749000000
H    -3.722000000     1.228000000    -6.615000000
O     5.862000000    -3.025000000    -1.848000000
H     5.366000000    -2.868000000    -2.651000000
H     6.098000000    -3.952000000    -1.890000000
O    -1.550000000     3.407000000    -1.403000000
H    -1.721000000     2.514000000    -1.702000000
H    -1.235000000     3.864000000    -2.183000000
O     7.740000000     0.767000000    -1.677000000
H     6.848000000     0.422000000    -1.721000000
H     7.895000000     1.140000000    -2.545000000
O     2.020000000    -5.408000000     4.133000000
H     2.063000000    -4.607000000     3.611000000
H     1.713000000    -6.077000000     3.521000000
O     5.133000000    -4.375000000     3.501000000
H     4.817000000    -4.997000000     2.845000000
H     5.480000000    -3.644000000     2.990000000
O    -6.633000000    -0.129000000    -3.536000000
H    -6.780000000    -0.216000000    -2.594000000
H    -7.496000000     0.077000000    -3.895000000
O     1.321000000     3.467000000    -0.211000000
H     0.403000000     3.444000000    -0.480000000
H     1.806000000     3.184000000    -0.986000000
O    -0.752000000     4.457000000    -3.669000000
H     0.101000000     4.849000000    -3.479000000
H    -0.828000000     4.499000000    -4.622000000
O     5.409000000    -2.093000000     1.515000000
H     6.009000000    -1.961000000     0.780000000
H     4.945000000    -1.260000000     1.597000000
O    -4.667000000     2.725000000    -1.522000000
H    -5.279000000     2.586000000    -0.799000000
H    -4.494000000     1.848000000    -1.863000000
O     1.484000000     1.740000000     4.902000000
H     2.219000000     1.182000000     4.645000000
H     1.008000000     1.898000000     4.087000000
O    -1.181000000     3.538000000     4.698000000
H    -1.922000000     4.012000000     4.320000000
H    -0.576000000     3.416000000     3.966000000
O     3.803000000     0.357000000     4.322000000
H     3.565000000    -0.501000000     3.969000000
H     4.111000000     0.173000000     5.210000000
O     0.925000000     1.874000000    -4.490000000
H     0.071000000     2.174000000    -4.179000000
H     1.186000000     2.527000000    -5.139000000
O    -1.149000000    -4.616000000     3.050000000
H    -0.834000000    -5.011000000     3.864000000
H    -2.096000000    -4.546000000     3.169000000
O    -3.776000000    -2.301000000     1.652000000
H    -3.959000000    -1.560000000     1.075000000
H    -4.230000000    -2.087000000     2.467000000
O     4.697000000     1.742000000    -5.265000000
H     4.032000000     1.308000000    -4.730000000
H     5.218000000     2.244000000    -4.638000000
O     0.153000000     2.443000000     2.474000000
H     0.428000000     2.876000000     1.666000000
H    -0.319000000     1.664000000     2.180000000
O    -1.404000000    -0.988000000     4.902000000
H    -1.139000000    -0.245000000     5.444000000
H    -2.161000000    -0.667000000     4.411000000
O     1.877000000    -3.679000000    -2.900000000
H     2.783000000    -3.759000000    -3.197000000
H     1.556000000    -2.882000000    -3.322000000
O    -3.770000000    -3.671000000    -2.442000000
H    -4.105000000    -2.819000000    -2.720000000
H    -3.211000000    -3.956000000    -3.165000000
O     5.196000000     2.340000000    -0.213000000
H     5.048000000     1.976000000     0.660000000
H     5.154000000     1.584000000    -0.798000000
O     1.253000000    -3.594000000     2.115000000
H     0.382000000    -3.886000000     2.388000000
H     1.178000000    -3.469000000     1.169000000
O     3.961000000    -5.881000000     1.291000000
H     3.704000000    -6.631000000     1.828000000
H     3.200000000    -5.711000000     0.736000000
O     3.439000000    -0.313000000    -4.048000000
H     2.518000000    -0.575000000    -4.046000000
H     3.916000000    -1.116000000    -4.257000000
O    -2.140000000     1.457000000    -4.653000000
H    -2.463000000     2.349000000    -4.523000000
H    -2.686000000     0.919000000    -4.079000000
O    -3.880000000     4.126000000    -3.963000000
H    -4.289000000     3.358000000    -4.362000000
H    -4.030000000     4.016000000    -3.024000000
O    -4.178000000    -1.231000000    -3.769000000
H    -5.029000000    -0.872000000    -4.021000000
H    -3.903000000    -0.693000000    -3.026000000
O    -3.364000000    -3.371000000     5.842000000
H    -3.391000000    -2.742000000     5.121000000
H    -4.008000000    -3.043000000     6.470000000
O     7.839000000     0.771000000     1.458000000
H     8.009000000     0.881000000     0.522000000
H     6.993000000     1.196000000     1.599000000
O    -3.909000000    -4.636000000     0.182000000
H    -3.981000000    -4.340000000    -0.726000000
H    -3.758000000    -3.835000000     0.683000000
O     3.260000000    -2.281000000     3.613000000
H     3.177000000    -2.410000000     2.668000000
H     3.849000000    -2.979000000     3.899000000
O     2.633000000     5.108000000     1.545000000
H     3.549000000     4.891000000     1.720000000
H     2.278000000     4.326000000     1.123000000
O     0.371000000    -2.924000000    -0.635000000
H    -0.208000000    -2.254000000    -0.271000000
H    -0.215000000    -3.518000000    -1.104000000
O     5.400000000     1.812000000     2.544000000
H     4.824000000     1.302000000     3.114000000
H     5.109000000     2.716000000     2.656000000
O    -5.657000000    -1.738000000    -0.876000000
H    -5.980000000    -2.032000000    -0.024000000
H    -5.112000000    -0.977000000    -0.675000000
O    -1.670000000    -2.114000000    -5.204000000
H    -2.461000000    -1.866000000    -4.726000000
H    -1.871000000    -1.919000000    -6.119000000
O    -7.295000000     2.065000000     0.552000000
H    -7.909000000     2.177000000     1.279000000
H    -7.845000000     2.089000000    -0.231000000
O    -1.016000000     1.407000000     6.532000000
H    -1.459000000     2.035000000     5.962000000
H    -0.086000000     1.513000000     6.330000000
O     0.826000000    -0.912000000    -4.411000000
H    -0.067000000    -1.255000000    -4.434000000
H     0.718000000     0.039000000    -4.444000000
