161
-3037.65235
C    -0.711000000    -0.395000000     1.213000000
H    -1.062000000    -0.862000000     2.129000000
C     0.583000000    -0.757000000     0.891000000
H     1.117000000    -1.371000000     1.612000000
C     1.113000000    -0.413000000    -0.354000000
C     2.596000000    -0.626000000    -0.694000000
H     3.117000000    -0.045000000     0.070000000
H     2.926000000    -1.664000000    -0.622000000
H     2.798000000    -0.242000000    -1.696000000
C     0.336000000     0.403000000    -1.185000000
H     0.731000000     0.616000000    -2.175000000
C    -0.947000000     0.809000000    -0.843000000
H    -1.507000000     1.430000000    -1.537000000
C    -1.465000000     0.421000000     0.366000000
C    -2.812000000     0.776000000     0.819000000
O    -3.499000000     1.478000000     0.139000000
O    -3.314000000     0.438000000     1.869000000
O    -3.135000000     4.172000000     2.885000000
H    -2.576000000     3.425000000     3.098000000
H    -3.511000000     4.437000000     3.724000000
O     2.705000000     3.273000000    -2.291000000
H     2.462000000     2.683000000    -3.004000000
H     3.616000000     3.052000000    -2.097000000
O    -0.461000000     0.165000000    -4.736000000
H    -0.476000000    -0.759000000    -4.485000000
H    -0.703000000     0.166000000    -5.662000000
O     2.037000000    -4.223000000     2.333000000
H     2.497000000    -4.726000000     1.662000000
H     2.483000000    -3.377000000     2.347000000
O    -5.349000000     2.765000000     1.780000000
H    -4.815000000     2.079000000     1.379000000
H    -4.716000000     3.342000000     2.207000000
O     5.751000000    -3.325000000     3.815000000
H     5.040000000    -3.221000000     3.183000000
H     6.411000000    -2.689000000     3.539000000
O    -0.450000000     4.509000000    -2.339000000
H     0.393000000     4.301000000    -1.937000000
H    -1.089000000     4.008000000    -1.832000000
O     5.221000000    -6.366000000    -1.980000000
H     4.681000000    -6.419000000    -2.768000000
H     4.774000000    -5.727000000    -1.426000000
O    -2.851000000    -3.046000000     0.320000000
H    -2.741000000    -2.171000000    -0.053000000
H    -3.784000000    -3.235000000     0.217000000
O    -4.340000000     2.678000000     6.733000000
H    -4.240000000     3.601000000     6.501000000
H    -4.047000000     2.202000000     5.956000000
O     3.205000000    -3.833000000    -1.616000000
H     3.792000000    -3.125000000    -1.880000000
H     2.342000000    -3.558000000    -1.926000000
O    -3.978000000     6.154000000    -1.535000000
H    -3.920000000     5.200000000    -1.577000000
H    -4.029000000     6.350000000    -0.599000000
O     5.534000000     2.844000000    -1.235000000
H     6.029000000     3.624000000    -1.485000000
H     6.116000000     2.113000000    -1.441000000
O     3.776000000    -5.406000000     0.539000000
H     4.019000000    -4.603000000     0.079000000
H     4.566000000    -5.657000000     1.017000000
O    -1.999000000     3.493000000    -0.426000000
H    -1.609000000     3.514000000     0.448000000
H    -2.722000000     2.871000000    -0.350000000
O     0.386000000     1.858000000     4.775000000
H     0.036000000     1.383000000     5.529000000
H    -0.188000000     2.619000000     4.684000000
O    -4.298000000     2.066000000    -5.200000000
H    -3.594000000     2.589000000    -4.816000000
H    -5.047000000     2.661000000    -5.235000000
O     1.696000000     1.873000000     1.938000000
H     1.287000000     1.127000000     1.499000000
H     1.649000000     1.658000000     2.869000000
O    -6.378000000     1.069000000     3.653000000
H    -6.022000000     0.365000000     3.111000000
H    -6.362000000     1.840000000     3.086000000
O    -1.630000000    -3.213000000     6.264000000
H    -0.922000000    -3.315000000     5.628000000
H    -2.291000000    -3.848000000     5.990000000
O     7.082000000    -1.359000000     2.036000000
H     7.984000000    -1.081000000     2.192000000
H     6.549000000    -0.731000000     2.524000000
O    -1.987000000    -5.841000000     0.145000000
H    -2.354000000    -4.971000000     0.305000000
H    -2.509000000    -6.425000000     0.695000000
O    -6.210000000    -0.680000000    -0.820000000
H    -5.653000000    -0.713000000    -1.598000000
H    -6.309000000     0.254000000    -0.635000000
O    -3.102000000     1.687000000     4.332000000
H    -2.707000000     0.901000000     4.709000000
H    -3.406000000     1.410000000     3.468000000
O     6.665000000    -1.194000000    -4.885000000
H     6.468000000    -1.968000000    -5.413000000
H     5.857000000    -0.681000000    -4.900000000
O    -4.770000000     3.092000000    -1.687000000
H    -4.413000000     2.341000000    -1.212000000
H    -5.322000000     2.706000000    -2.366000000
O     0.220000000    -3.006000000     4.160000000
H     0.625000000    -3.404000000     3.390000000
H     0.953000000    -2.823000000     4.748000000
O     3.831000000    -2.174000000     2.052000000
H     3.855000000    -1.362000000     2.558000000
H     4.494000000    -2.052000000     1.372000000
O     0.385000000    -6.731000000     1.565000000
H    -0.300000000    -6.508000000     0.935000000
H     0.838000000    -5.904000000     1.729000000
O     4.434000000     0.236000000    -4.331000000
H     3.521000000     0.520000000    -4.356000000
H     4.902000000     0.968000000    -3.930000000
O    -0.719000000    -2.882000000    -4.308000000
H    -1.656000000    -2.899000000    -4.506000000
H    -0.317000000    -3.399000000    -5.006000000
O    -2.747000000    -2.892000000     3.192000000
H    -2.650000000    -2.938000000     2.241000000
H    -1.859000000    -3.011000000     3.530000000
O     0.440000000    -3.066000000    -1.969000000
H     0.051000000    -2.469000000    -1.330000000
H    -0.085000000    -2.945000000    -2.761000000
O     2.036000000     1.529000000    -4.479000000
H     1.140000000     1.218000000    -4.347000000
H     2.061000000     1.808000000    -5.394000000
O    -5.279000000     0.081000000    -3.423000000
H    -4.885000000     0.696000000    -4.042000000
H    -5.756000000    -0.540000000    -3.973000000
O    -1.579000000     2.780000000    -4.481000000
H    -0.914000000     3.189000000    -3.927000000
H    -1.639000000     1.881000000    -4.160000000
O     3.757000000     2.909000000     4.511000000
H     3.055000000     2.258000000     4.500000000
H     4.137000000     2.866000000     3.633000000
O    -7.091000000     4.710000000     0.004000000
H    -6.711000000     4.815000000     0.877000000
H    -6.376000000     4.361000000    -0.528000000
O     6.011000000    -2.098000000    -0.372000000
H     6.569000000    -1.852000000     0.366000000
H     6.353000000    -2.946000000    -0.658000000
O     2.989000000    -0.088000000     3.694000000
H     2.653000000    -0.755000000     4.293000000
H     3.835000000     0.162000000     4.064000000
O     4.411000000     2.629000000     1.823000000
H     3.557000000     2.270000000     1.586000000
H     4.907000000     2.631000000     1.004000000
O     2.668000000    -2.022000000     5.755000000
H     3.261000000    -2.604000000     6.230000000
H     2.752000000    -1.179000000     6.200000000
O    -5.451000000    -1.066000000     2.042000000
H    -5.732000000    -0.888000000     1.144000000
H    -4.528000000    -0.816000000     2.058000000
O     1.598000000    -6.710000000    -2.117000000
H     0.663000000    -6.580000000    -2.278000000
H     1.913000000    -5.852000000    -1.833000000
O    -5.508000000    -3.642000000     3.808000000
H    -6.034000000    -3.598000000     3.010000000
H    -4.665000000    -3.263000000     3.561000000
O    -3.006000000    -0.741000000     5.326000000
H    -2.596000000    -1.217000000     4.604000000
H    -3.936000000    -0.953000000     5.255000000
O    -8.047000000     2.269000000     1.147000000
H    -8.135000000     2.385000000     0.201000000
H    -7.138000000     2.501000000     1.334000000
O     6.556000000    -0.078000000    -2.142000000
H     6.001000000    -0.589000000    -1.553000000
H     6.719000000    -0.661000000    -2.883000000
