161
-3059.66573
C    -0.397000000    -0.330000000     1.455000000
H    -0.564000000    -0.554000000     2.505000000
C     0.806000000    -0.722000000     0.763000000
H     1.597000000    -1.245000000     1.294000000
C     1.129000000    -0.304000000    -0.558000000
C     2.253000000    -0.888000000    -1.365000000
H     1.897000000    -1.329000000    -2.298000000
H     2.987000000    -0.093000000    -1.511000000
H     2.766000000    -1.693000000    -0.836000000
C     0.205000000     0.539000000    -1.154000000
H     0.358000000     0.877000000    -2.176000000
C    -1.025000000     0.845000000    -0.558000000
H    -1.667000000     1.592000000    -1.017000000
C    -1.345000000     0.384000000     0.772000000
C    -2.672000000     0.836000000     1.393000000
O    -3.300000000     1.694000000     0.832000000
O    -3.020000000     0.388000000     2.459000000
O    -0.365000000     6.038000000     1.150000000
H     0.367000000     5.498000000     0.852000000
H    -1.028000000     5.408000000     1.434000000
O     0.558000000     2.594000000     4.414000000
H     0.462000000     3.519000000     4.186000000
H     1.360000000     2.558000000     4.935000000
O     0.340000000     4.074000000    -1.451000000
H     1.063000000     4.685000000    -1.305000000
H     0.519000000     3.345000000    -0.856000000
O     1.516000000     0.988000000    -4.759000000
H     2.405000000     1.055000000    -4.411000000
H     1.226000000     0.111000000    -4.507000000
O    -3.811000000     4.228000000    -3.307000000
H    -3.062000000     4.207000000    -2.712000000
H    -4.127000000     5.130000000    -3.264000000
O     3.135000000    -3.102000000     2.091000000
H     2.568000000    -3.165000000     2.859000000
H     3.659000000    -2.316000000     2.243000000
O    -4.629000000     2.988000000     3.404000000
H    -4.052000000     2.306000000     3.061000000
H    -4.593000000     2.877000000     4.354000000
O    -2.341000000     4.480000000    -1.210000000
H    -1.404000000     4.571000000    -1.379000000
H    -2.391000000     4.005000000    -0.380000000
O     3.838000000    -4.023000000    -2.478000000
H     3.687000000    -3.210000000    -2.959000000
H     3.055000000    -4.549000000    -2.643000000
O    -7.492000000     4.485000000    -0.600000000
H    -6.765000000     3.901000000    -0.383000000
H    -7.071000000     5.298000000    -0.880000000
O     6.565000000    -4.366000000    -2.830000000
H     5.637000000    -4.515000000    -2.649000000
H     6.827000000    -3.695000000    -2.199000000
O    -4.341000000    -1.358000000     4.150000000
H    -4.951000000    -1.808000000     3.566000000
H    -3.970000000    -0.656000000     3.614000000
O     4.759000000    -3.957000000     0.103000000
H     4.213000000    -3.921000000    -0.682000000
H     4.190000000    -3.640000000     0.805000000
O    -5.986000000    -1.939000000    -0.215000000
H    -6.497000000    -1.140000000    -0.343000000
H    -5.870000000    -1.999000000     0.734000000
O     2.445000000     5.054000000     0.624000000
H     2.071000000     4.187000000     0.780000000
H     3.373000000     4.957000000     0.840000000
O    -2.338000000     3.891000000     1.741000000
H    -2.458000000     3.081000000     1.246000000
H    -3.036000000     3.878000000     2.396000000
O    -1.252000000     0.421000000    -6.126000000
H    -0.778000000     0.985000000    -5.514000000
H    -2.175000000     0.620000000    -5.970000000
O     2.914000000     4.055000000    -4.690000000
H     2.022000000     4.396000000    -4.750000000
H     2.898000000     3.251000000    -5.209000000
O     1.239000000     2.562000000     0.974000000
H     0.568000000     2.316000000     1.610000000
H     1.642000000     1.733000000     0.718000000
O    -5.155000000     1.961000000     6.109000000
H    -4.746000000     1.096000000     6.140000000
H    -6.095000000     1.782000000     6.143000000
O    -5.753000000    -3.372000000     2.287000000
H    -6.652000000    -3.330000000     2.615000000
H    -5.417000000    -4.205000000     2.616000000
O    -2.581000000    -2.964000000     2.161000000
H    -2.659000000    -2.270000000     2.816000000
H    -3.429000000    -2.971000000     1.718000000
O     4.058000000     0.923000000    -3.954000000
H     4.481000000     1.323000000    -4.713000000
H     4.261000000    -0.010000000    -4.031000000
O    -5.440000000     2.878000000    -0.589000000
H    -4.657000000     2.398000000    -0.317000000
H    -5.967000000     2.230000000    -1.056000000
O     1.602000000    -1.825000000    -7.427000000
H     2.279000000    -2.490000000    -7.297000000
H     0.983000000    -1.970000000    -6.711000000
O    -3.301000000    -1.599000000    -0.969000000
H    -3.068000000    -0.709000000    -0.704000000
H    -4.222000000    -1.688000000    -0.725000000
O     7.028000000    -2.484000000    -0.258000000
H     6.247000000    -3.027000000    -0.149000000
H     7.378000000    -2.387000000     0.628000000
O    -7.583000000     2.821000000     1.978000000
H    -6.825000000     3.118000000     2.482000000
H    -7.781000000     3.551000000     1.392000000
O    -7.266000000    -1.134000000     4.358000000
H    -8.124000000    -0.714000000     4.419000000
H    -6.722000000    -0.503000000     3.887000000
O     0.729000000    -2.358000000    -4.761000000
H    -0.077000000    -1.934000000    -4.465000000
H     0.471000000    -3.262000000    -4.944000000
O    -5.236000000     5.781000000    -1.067000000
H    -4.906000000     6.317000000    -1.789000000
H    -4.810000000     4.932000000    -1.186000000
O     1.275000000    -5.602000000    -2.359000000
H     0.355000000    -5.463000000    -2.134000000
H     1.718000000    -5.683000000    -1.515000000
O    -1.878000000    -5.232000000     3.394000000
H    -1.653000000    -5.894000000     2.740000000
H    -1.971000000    -4.422000000     2.892000000
O     1.304000000    -2.510000000     5.551000000
H     0.664000000    -3.103000000     5.946000000
H     2.037000000    -2.503000000     6.167000000
O    -1.086000000    -3.442000000    -1.388000000
H    -0.605000000    -2.787000000    -1.894000000
H    -1.847000000    -2.971000000    -1.050000000
O     1.268000000    -5.400000000     4.182000000
H     0.909000000    -4.715000000     3.619000000
H     2.154000000    -5.102000000     4.387000000
O     0.283000000    -3.577000000     2.384000000
H    -0.464000000    -2.979000000     2.388000000
H     0.767000000    -3.349000000     1.590000000
O    -5.723000000     2.373000000    -3.813000000
H    -5.031000000     2.947000000    -3.483000000
H    -5.812000000     2.611000000    -4.736000000
O    -4.129000000    -0.160000000    -3.494000000
H    -4.551000000    -1.007000000    -3.350000000
H    -4.838000000     0.478000000    -3.409000000
O    -0.393000000     2.685000000    -4.187000000
H    -0.317000000     3.348000000    -3.501000000
H     0.490000000     2.327000000    -4.274000000
O     5.134000000    -1.349000000     2.650000000
H     4.852000000    -0.509000000     2.287000000
H     5.755000000    -1.691000000     2.007000000
O     4.745000000     1.093000000     0.974000000
H     4.917000000     2.028000000     0.865000000
H     4.942000000     0.712000000     0.118000000
O    -6.018000000     0.294000000     1.962000000
H    -6.522000000     1.106000000     2.010000000
H    -5.112000000     0.581000000     1.854000000
O    -1.575000000    -1.409000000    -3.802000000
H    -1.705000000    -1.095000000    -4.697000000
H    -2.332000000    -1.078000000    -3.319000000
O    -2.950000000    -0.146000000     6.317000000
H    -3.338000000    -0.790000000     5.725000000
H    -2.007000000    -0.225000000     6.172000000
O    -0.296000000     0.036000000     5.741000000
H     0.360000000    -0.594000000     5.441000000
H    -0.090000000     0.840000000     5.264000000
O     3.511000000    -2.276000000    -4.509000000
H     3.922000000    -1.720000000    -5.170000000
H     2.572000000    -2.191000000    -4.674000000
O     5.569000000     0.622000000    -1.678000000
H     6.356000000     0.676000000    -2.220000000
H     4.853000000     0.845000000    -2.272000000
