161
-3042.44995
C    -0.228000000    -0.328000000    -1.396000000
H    -0.360000000    -0.428000000    -2.470000000
C     0.900000000     0.318000000    -0.893000000
H     1.667000000     0.646000000    -1.589000000
C     1.051000000     0.458000000     0.494000000
C     2.312000000     1.163000000     1.089000000
H     2.243000000     1.100000000     2.177000000
H     3.226000000     0.635000000     0.812000000
H     2.400000000     2.161000000     0.654000000
C    -0.078000000     0.238000000     1.274000000
H    -0.070000000     0.353000000     2.355000000
C    -1.250000000    -0.305000000     0.745000000
H    -2.088000000    -0.558000000     1.389000000
C    -1.300000000    -0.680000000    -0.570000000
C    -2.488000000    -1.360000000    -1.187000000
O    -3.401000000    -1.675000000    -0.530000000
O    -2.530000000    -1.736000000    -2.358000000
O     1.471000000    -4.042000000    -2.398000000
H     0.569000000    -3.898000000    -2.683000000
H     1.579000000    -3.463000000    -1.643000000
O    -1.286000000    -3.797000000    -3.282000000
H    -1.665000000    -3.074000000    -2.782000000
H    -1.558000000    -3.632000000    -4.184000000
O     2.052000000    -2.095000000    -4.632000000
H     2.752000000    -1.466000000    -4.457000000
H     2.404000000    -2.934000000    -4.335000000
O    -0.930000000     4.249000000     4.465000000
H    -0.855000000     4.849000000     5.207000000
H    -0.376000000     4.636000000     3.787000000
O    -5.464000000    -1.350000000     4.685000000
H    -6.186000000    -1.963000000     4.827000000
H    -4.817000000    -1.853000000     4.190000000
O    -3.091000000     2.963000000     0.379000000
H    -2.194000000     2.706000000     0.595000000
H    -3.640000000     2.399000000     0.923000000
O     1.685000000    -0.770000000     5.000000000
H     1.608000000    -0.960000000     4.065000000
H     1.041000000    -1.343000000     5.415000000
O     4.879000000     0.736000000     2.861000000
H     5.419000000     0.544000000     2.095000000
H     4.375000000    -0.064000000     3.006000000
O    -1.556000000     0.553000000    -7.369000000
H    -1.150000000     1.410000000    -7.242000000
H    -1.820000000     0.281000000    -6.490000000
O     4.554000000     4.648000000    -0.715000000
H     4.067000000     5.469000000    -0.787000000
H     5.265000000     4.845000000    -0.105000000
O    -1.623000000    -6.250000000    -1.936000000
H    -1.613000000    -5.399000000    -2.374000000
H    -1.469000000    -6.882000000    -2.638000000
O     5.489000000     0.061000000    -0.746000000
H     5.972000000    -0.252000000     0.019000000
H     5.409000000    -0.708000000    -1.310000000
O     2.652000000     4.238000000     5.167000000
H     1.954000000     4.623000000     5.697000000
H     3.420000000     4.778000000     5.353000000
O     7.336000000    -0.554000000     1.273000000
H     7.939000000     0.058000000     0.853000000
H     7.865000000    -1.335000000     1.440000000
O    -7.912000000     0.449000000    -0.259000000
H    -8.422000000    -0.241000000    -0.684000000
H    -7.225000000    -0.019000000     0.216000000
O    -2.389000000    -1.002000000     4.255000000
H    -1.944000000    -0.225000000     3.916000000
H    -2.376000000    -0.890000000     5.205000000
O    -2.973000000     3.670000000    -3.135000000
H    -2.282000000     3.628000000    -2.474000000
H    -2.766000000     2.961000000    -3.743000000
O     2.178000000     1.805000000    -4.920000000
H     2.920000000     2.311000000    -5.252000000
H     2.574000000     1.143000000    -4.353000000
O    -5.211000000     1.841000000    -2.533000000
H    -5.415000000     1.575000000    -1.636000000
H    -4.415000000     2.366000000    -2.452000000
O     5.694000000     0.064000000     5.868000000
H     5.350000000     0.281000000     5.002000000
H     6.564000000    -0.294000000     5.698000000
O     2.004000000     4.279000000    -1.773000000
H     2.679000000     3.932000000    -1.189000000
H     2.464000000     4.456000000    -2.593000000
O    -0.295000000     3.127000000    -2.109000000
H     0.509000000     3.634000000    -2.217000000
H    -0.452000000     3.124000000    -1.165000000
O    -0.240000000     5.753000000    -0.295000000
H     0.612000000     5.438000000     0.006000000
H    -0.093000000     6.010000000    -1.205000000
O    -4.945000000     1.585000000     1.861000000
H    -5.434000000     0.772000000     1.733000000
H    -4.737000000     1.595000000     2.795000000
O     0.048000000    -4.649000000     1.022000000
H    -0.004000000    -5.590000000     1.190000000
H    -0.854000000    -4.339000000     1.112000000
O    -5.524000000    -1.356000000    -2.469000000
H    -6.082000000    -1.113000000    -1.730000000
H    -4.635000000    -1.332000000    -2.115000000
O     3.562000000    -0.013000000    -3.172000000
H     3.853000000    -0.866000000    -2.850000000
H     3.958000000     0.618000000    -2.570000000
O    -0.537000000    -2.208000000    -5.664000000
H    -1.194000000    -1.608000000    -5.311000000
H     0.213000000    -2.115000000    -5.077000000
O     1.294000000    -2.720000000     2.714000000
H     0.969000000    -2.951000000     1.844000000
H     0.623000000    -3.045000000     3.314000000
O    -5.628000000    -2.782000000    -4.826000000
H    -5.619000000    -2.412000000    -3.943000000
H    -4.753000000    -3.156000000    -4.937000000
O    -1.317000000     1.413000000     4.397000000
H    -0.467000000     1.321000000     4.827000000
H    -1.507000000     2.350000000     4.439000000
O    -7.089000000    -4.213000000    -1.740000000
H    -7.029000000    -5.126000000    -2.021000000
H    -6.180000000    -3.920000000    -1.683000000
O    -0.455000000     2.715000000    -5.054000000
H    -0.359000000     2.741000000    -4.102000000
H     0.396000000     2.414000000    -5.373000000
O     6.013000000     5.144000000     1.782000000
H     6.732000000     5.159000000     2.413000000
H     5.357000000     4.571000000     2.180000000
O    -2.283000000    -0.438000000    -4.749000000
H    -2.256000000    -0.794000000    -3.860000000
H    -3.163000000    -0.070000000    -4.832000000
O    -4.102000000    -3.868000000    -2.336000000
H    -3.789000000    -2.977000000    -2.178000000
H    -3.376000000    -4.300000000    -2.787000000
O    -0.213000000     3.258000000     0.912000000
H     0.165000000     4.022000000     0.475000000
H     0.521000000     2.866000000     1.385000000
O     1.419000000     1.700000000     5.981000000
H     1.417000000     0.839000000     5.562000000
H     1.866000000     2.270000000     5.356000000
O    -5.544000000    -3.449000000     2.086000000
H    -4.611000000    -3.482000000     1.876000000
H    -5.756000000    -4.337000000     2.374000000
O     4.831000000     2.447000000    -2.055000000
H     5.349000000     1.909000000    -1.455000000
H     4.635000000     3.240000000    -1.556000000
O    -4.784000000     0.454000000    -4.930000000
H    -5.215000000    -0.379000000    -4.738000000
H    -4.980000000     1.005000000    -4.172000000
O    -5.702000000    -0.939000000     0.784000000
H    -4.838000000    -1.168000000     0.443000000
H    -5.929000000    -1.662000000     1.368000000
O     2.942000000    -2.396000000    -0.385000000
H     3.725000000    -2.779000000     0.011000000
H     2.900000000    -1.511000000    -0.024000000
O     3.702000000    -1.639000000     2.938000000
H     4.233000000    -2.097000000     3.590000000
H     2.893000000    -2.148000000     2.889000000
O    -2.445000000    -3.860000000     1.071000000
H    -2.673000000    -3.101000000     0.534000000
H    -2.813000000    -4.607000000     0.600000000
O    -1.364000000    -3.483000000     3.628000000
H    -1.721000000    -2.660000000     3.960000000
H    -1.723000000    -3.562000000     2.744000000
O     2.162000000     5.518000000     1.337000000
H     1.702000000     5.835000000     2.114000000
H     2.731000000     4.820000000     1.664000000
O     4.172000000     3.515000000     2.782000000
H     3.505000000     3.519000000     3.469000000
H     4.658000000     2.703000000     2.925000000
