161
-3051.05386
C    -1.151000000    -0.469000000     0.829000000
H    -1.964000000    -0.862000000     1.434000000
C     0.005000000    -1.169000000     0.538000000
H     0.067000000    -2.202000000     0.869000000
C     0.974000000    -0.646000000    -0.318000000
C     2.328000000    -1.467000000    -0.513000000
H     3.174000000    -0.848000000    -0.207000000
H     2.465000000    -2.341000000     0.128000000
H     2.368000000    -1.842000000    -1.538000000
C     0.766000000     0.647000000    -0.896000000
H     1.455000000     1.072000000    -1.622000000
C    -0.275000000     1.363000000    -0.478000000
H    -0.358000000     2.352000000    -0.920000000
C    -1.286000000     0.846000000     0.360000000
C    -2.549000000     1.636000000     0.641000000
O    -2.607000000     2.808000000     0.411000000
O    -3.416000000     1.119000000     1.285000000
O    -3.975000000     3.799000000     4.298000000
H    -3.499000000     2.977000000     4.414000000
H    -4.347000000     3.985000000     5.160000000
O     2.354000000     3.388000000    -1.873000000
H     2.765000000     2.662000000    -2.343000000
H     3.073000000     3.991000000    -1.686000000
O    -5.118000000     3.844000000    -3.193000000
H    -5.774000000     3.884000000    -3.889000000
H    -5.563000000     3.401000000    -2.470000000
O     2.665000000    -1.005000000    -3.957000000
H     1.806000000    -1.238000000    -3.606000000
H     2.493000000    -0.748000000    -4.862000000
O    -2.457000000     7.132000000    -2.178000000
H    -2.592000000     6.319000000    -1.692000000
H    -3.331000000     7.374000000    -2.487000000
O    -5.101000000     3.413000000     1.702000000
H    -4.311000000     3.074000000     1.281000000
H    -4.821000000     3.648000000     2.586000000
O     4.615000000    -6.336000000    -2.406000000
H     4.228000000    -7.199000000    -2.260000000
H     3.978000000    -5.723000000    -2.039000000
O     5.934000000    -4.982000000     0.219000000
H     5.724000000    -5.359000000    -0.635000000
H     6.346000000    -4.143000000     0.017000000
O    -6.457000000     3.007000000    -0.902000000
H    -7.365000000     2.842000000    -0.647000000
H    -6.136000000     3.631000000    -0.252000000
O    -7.945000000    -0.897000000     0.860000000
H    -7.198000000    -0.672000000     1.414000000
H    -8.583000000    -0.202000000     1.024000000
O    -3.838000000    -3.600000000     2.854000000
H    -4.701000000    -3.994000000     2.733000000
H    -3.762000000    -2.966000000     2.141000000
O     1.110000000    -4.940000000     0.977000000
H     0.328000000    -4.803000000     0.443000000
H     0.783000000    -4.970000000     1.877000000
O     0.999000000     5.476000000     0.006000000
H     1.536000000     5.872000000     0.692000000
H     1.579000000     4.841000000    -0.415000000
O    -1.517000000     5.421000000     0.981000000
H    -0.703000000     5.594000000     0.509000000
H    -1.763000000     4.534000000     0.719000000
O     7.198000000     0.167000000     0.011000000
H     8.090000000     0.419000000    -0.225000000
H     7.139000000     0.346000000     0.950000000
O     0.194000000     6.455000000    -2.701000000
H    -0.725000000     6.722000000    -2.705000000
H     0.416000000     6.377000000    -1.773000000
O    -0.079000000     5.136000000     3.377000000
H     0.161000000     4.224000000     3.545000000
H    -0.759000000     5.085000000     2.706000000
O    -2.776000000     1.262000000    -3.887000000
H    -2.461000000     2.165000000    -3.871000000
H    -3.669000000     1.326000000    -4.225000000
O    -3.879000000    -1.964000000     0.687000000
H    -4.236000000    -1.088000000     0.546000000
H    -3.650000000    -2.273000000    -0.190000000
O    -1.893000000    -2.153000000     3.879000000
H    -1.075000000    -2.649000000     3.839000000
H    -2.575000000    -2.803000000     3.713000000
O    -5.165000000     0.490000000    -0.879000000
H    -5.759000000     1.239000000    -0.905000000
H    -4.676000000     0.600000000    -0.063000000
O     4.795000000     3.698000000     0.752000000
H     5.733000000     3.842000000     0.881000000
H     4.748000000     2.944000000     0.165000000
O     0.584000000     2.170000000     4.071000000
H     0.879000000     1.368000000     4.504000000
H    -0.282000000     1.951000000     3.727000000
O    -6.926000000    -0.046000000     4.544000000
H    -7.074000000     0.482000000     3.760000000
H    -7.406000000    -0.857000000     4.381000000
O    -3.689000000     4.738000000    -1.047000000
H    -3.378000000     3.921000000    -0.658000000
H    -4.106000000     4.471000000    -1.866000000
O     2.576000000    -4.887000000    -1.372000000
H     2.005000000    -4.567000000    -2.070000000
H     2.036000000    -4.847000000    -0.583000000
O    -0.256000000     1.818000000    -5.687000000
H     0.084000000     2.568000000    -5.200000000
H    -0.453000000     1.165000000    -5.016000000
O     2.300000000     1.243000000     2.069000000
H     2.037000000     1.500000000     1.185000000
H     1.727000000     1.749000000     2.645000000
O    -0.762000000    -4.534000000    -1.004000000
H    -0.472000000    -3.853000000    -1.613000000
H    -1.008000000    -5.268000000    -1.566000000
O     0.012000000    -2.321000000    -3.389000000
H     0.346000000    -3.133000000    -3.768000000
H    -0.922000000    -2.325000000    -3.598000000
O    -3.635000000     6.119000000     2.747000000
H    -3.629000000     5.368000000     3.341000000
H    -3.154000000     5.819000000     1.976000000
O     0.289000000    -3.732000000     3.691000000
H     0.815000000    -4.125000000     4.387000000
H     0.827000000    -3.011000000     3.363000000
O    -2.118000000    -5.385000000     3.745000000
H    -1.238000000    -5.031000000     3.871000000
H    -2.607000000    -4.671000000     3.337000000
O     6.142000000     0.357000000    -2.652000000
H     6.999000000     0.394000000    -3.077000000
H     6.338000000     0.171000000    -1.733000000
O    -0.300000000     3.378000000    -3.389000000
H     0.504000000     3.564000000    -2.904000000
H    -0.718000000     4.232000000    -3.496000000
O    -3.614000000    -0.850000000    -2.508000000
H    -3.210000000    -0.077000000    -2.902000000
H    -4.224000000    -0.498000000    -1.861000000
O    -3.842000000    -1.908000000     6.215000000
H    -3.801000000    -2.041000000     5.268000000
H    -3.603000000    -2.757000000     6.587000000
O     3.681000000     1.511000000    -3.453000000
H     4.604000000     1.349000000    -3.258000000
H     3.253000000     0.669000000    -3.299000000
O     5.244000000    -1.385000000    -5.898000000
H     4.550000000    -1.694000000    -6.480000000
H     4.964000000    -1.658000000    -5.024000000
O    -5.463000000     6.395000000     0.333000000
H    -4.942000000     6.454000000     1.133000000
H    -5.025000000     5.724000000    -0.190000000
O     2.042000000    -1.721000000     2.773000000
H     1.696000000    -0.835000000     2.667000000
H     2.210000000    -2.022000000     1.880000000
O     4.694000000    -1.777000000     4.426000000
H     3.943000000    -1.856000000     3.837000000
H     4.930000000    -2.680000000     4.636000000
O    -2.266000000     1.127000000     3.690000000
H    -2.071000000     0.190000000     3.700000000
H    -2.725000000     1.267000000     2.862000000
O     0.589000000    -5.252000000    -3.335000000
H     0.626000000    -5.241000000    -4.292000000
H     0.177000000    -6.089000000    -3.121000000
O     2.081000000    -7.366000000     1.417000000
H     2.965000000    -7.199000000     1.090000000
H     1.584000000    -6.585000000     1.174000000
O     5.211000000    -2.150000000    -3.235000000
H     4.317000000    -1.875000000    -3.442000000
H     5.606000000    -1.383000000    -2.820000000
O    -6.811000000     1.466000000     2.284000000
H    -7.280000000     2.126000000     2.793000000
H    -5.951000000     1.853000000     2.123000000
O     4.802000000     0.557000000     2.882000000
H     3.968000000     0.867000000     2.528000000
H     4.579000000    -0.249000000     3.348000000
