161
-3076.27838
C    -1.097000000     0.281000000    -0.998000000
H    -1.836000000     0.533000000    -1.754000000
C     0.269000000     0.435000000    -1.176000000
H     0.624000000     0.885000000    -2.100000000
C     1.195000000     0.105000000    -0.205000000
C     2.708000000     0.166000000    -0.488000000
H     3.148000000     1.166000000    -0.497000000
H     3.275000000    -0.459000000     0.206000000
H     3.001000000    -0.194000000    -1.476000000
C     0.739000000    -0.281000000     1.038000000
H     1.444000000    -0.662000000     1.772000000
C    -0.651000000    -0.368000000     1.258000000
H    -1.032000000    -0.752000000     2.202000000
C    -1.557000000    -0.056000000     0.254000000
C    -3.024000000    -0.146000000     0.584000000
O    -3.342000000    -0.494000000     1.724000000
O    -3.872000000    -0.151000000    -0.336000000
O     1.562000000    -3.720000000    -3.217000000
H     1.280000000    -2.861000000    -3.532000000
H     2.484000000    -3.778000000    -3.470000000
O    -1.218000000    -2.757000000    -2.483000000
H    -0.876000000    -2.051000000    -3.031000000
H    -0.695000000    -3.522000000    -2.723000000
O     2.107000000     0.187000000    -4.604000000
H     2.615000000     0.754000000    -4.024000000
H     2.762000000    -0.359000000    -5.039000000
O    -1.677000000     3.644000000     3.237000000
H    -1.293000000     3.300000000     2.430000000
H    -0.972000000     4.150000000     3.641000000
O    -2.902000000     0.635000000     4.121000000
H    -3.109000000     0.174000000     3.308000000
H    -3.304000000     1.497000000     4.016000000
O    -3.873000000     4.433000000     0.154000000
H    -4.101000000     3.524000000     0.350000000
H    -2.945000000     4.500000000     0.378000000
O     5.182000000     2.863000000     2.709000000
H     5.622000000     2.028000000     2.553000000
H     4.777000000     2.763000000     3.571000000
O     5.029000000     4.861000000    -0.366000000
H     5.819000000     4.353000000    -0.180000000
H     4.361000000     4.481000000     0.204000000
O    -6.362000000    -1.900000000    -2.980000000
H    -6.390000000    -1.079000000    -3.471000000
H    -5.435000000    -2.029000000    -2.780000000
O     4.473000000    -4.264000000    -3.229000000
H     4.545000000    -3.856000000    -2.367000000
H     4.438000000    -5.203000000    -3.047000000
O     3.300000000     2.358000000     5.005000000
H     2.780000000     1.562000000     5.114000000
H     3.782000000     2.445000000     5.827000000
O     3.224000000     3.459000000     0.983000000
H     3.948000000     3.373000000     1.603000000
H     2.864000000     2.575000000     0.910000000
O    -7.460000000     1.166000000     4.721000000
H    -6.654000000     1.025000000     4.225000000
H    -8.125000000     1.338000000     4.055000000
O     6.033000000     2.419000000    -2.707000000
H     6.065000000     1.697000000    -2.080000000
H     6.152000000     3.205000000    -2.173000000
O     3.759000000    -1.896000000     3.718000000
H     2.817000000    -1.812000000     3.866000000
H     3.870000000    -2.787000000     3.386000000
O    -0.241000000     2.119000000    -4.795000000
H     0.105000000     3.009000000    -4.847000000
H     0.536000000     1.560000000    -4.780000000
O     5.609000000    -1.589000000     1.259000000
H     5.055000000    -1.656000000     2.036000000
H     6.472000000    -1.353000000     1.599000000
O     3.503000000     2.317000000    -3.650000000
H     4.407000000     2.305000000    -3.337000000
H     3.484000000     3.017000000    -4.302000000
O     1.746000000     3.588000000    -1.731000000
H     2.658000000     3.452000000    -1.474000000
H     1.681000000     3.192000000    -2.600000000
O    -2.161000000     3.633000000    -1.998000000
H    -2.211000000     3.015000000    -2.727000000
H    -1.914000000     4.464000000    -2.404000000
O    -5.444000000     2.308000000     1.347000000
H    -5.312000000     1.534000000     1.895000000
H    -5.819000000     2.960000000     1.940000000
O     5.995000000     1.020000000    -0.051000000
H     5.582000000     0.160000000     0.029000000
H     6.621000000     1.054000000     0.672000000
O    -0.758000000    -3.719000000     4.601000000
H    -1.179000000    -4.578000000     4.649000000
H    -1.144000000    -3.305000000     3.830000000
O    -5.389000000    -4.164000000     1.769000000
H    -5.263000000    -4.238000000     0.823000000
H    -4.527000000    -3.921000000     2.107000000
O    -4.700000000     2.039000000    -2.103000000
H    -4.075000000     2.630000000    -1.682000000
H    -4.570000000     1.200000000    -1.662000000
O     3.603000000    -5.615000000     0.911000000
H     2.909000000    -4.956000000     0.873000000
H     3.138000000    -6.452000000     0.904000000
O    -0.688000000    -0.741000000    -4.376000000
H    -1.207000000     0.058000000    -4.281000000
H     0.189000000    -0.432000000    -4.603000000
O     1.932000000    -3.468000000     0.803000000
H     1.896000000    -2.550000000     0.535000000
H     1.040000000    -3.791000000     0.671000000
O    -6.411000000    -0.647000000    -0.478000000
H    -5.533000000    -0.493000000    -0.129000000
H    -6.261000000    -1.058000000    -1.330000000
O     4.374000000    -1.861000000    -4.869000000
H     4.164000000    -2.660000000    -4.386000000
H     4.937000000    -2.154000000    -5.585000000
O     1.231000000    -1.594000000     4.407000000
H     0.573000000    -0.898000000     4.411000000
H     0.753000000    -2.376000000     4.683000000
O    -8.385000000    -0.421000000     1.156000000
H    -7.579000000    -0.252000000     0.668000000
H    -8.340000000    -1.350000000     1.380000000
O     2.146000000     5.932000000     1.695000000
H     1.691000000     5.644000000     2.486000000
H     2.342000000     5.123000000     1.222000000
O    -3.127000000     0.681000000    -4.321000000
H    -3.459000000     0.816000000    -3.433000000
H    -3.754000000     0.080000000    -4.722000000
O    -3.667000000    -1.881000000    -2.323000000
H    -3.540000000    -1.265000000    -1.601000000
H    -2.782000000    -2.075000000    -2.630000000
O    -2.874000000    -1.607000000     5.601000000
H    -2.935000000    -0.845000000     5.025000000
H    -2.161000000    -1.394000000     6.204000000
O     6.422000000    -0.074000000    -4.583000000
H     5.575000000    -0.490000000    -4.746000000
H     6.202000000     0.807000000    -4.282000000
O    -0.972000000     3.132000000     0.347000000
H    -1.408000000     3.201000000    -0.502000000
H    -0.116000000     2.752000000     0.147000000
O     2.507000000    -0.496000000     6.593000000
H     2.114000000    -1.210000000     7.095000000
H     2.457000000    -0.788000000     5.682000000
O    -6.283000000     1.227000000    -4.156000000
H    -6.018000000     1.765000000    -4.902000000
H    -6.032000000     1.741000000    -3.389000000
O    -7.710000000     2.413000000    -1.042000000
H    -6.852000000     2.737000000    -0.767000000
H    -7.846000000     1.621000000    -0.521000000
O    -5.598000000    -0.250000000     3.113000000
H    -4.754000000    -0.356000000     2.674000000
H    -5.926000000    -1.143000000     3.221000000
O    -4.348000000    -4.613000000    -1.385000000
H    -5.002000000    -5.136000000    -1.850000000
H    -4.300000000    -3.795000000    -1.879000000
O     4.522000000    -3.081000000    -0.800000000
H     3.764000000    -3.521000000    -0.416000000
H     4.884000000    -2.558000000    -0.085000000
O    -2.780000000    -3.097000000     1.927000000
H    -2.976000000    -2.165000000     1.829000000
H    -2.121000000    -3.275000000     1.256000000
O    -0.793000000    -4.602000000     0.602000000
H    -1.229000000    -4.598000000    -0.251000000
H    -0.677000000    -5.530000000     0.807000000
O    -0.182000000     0.761000000     4.470000000
H    -0.088000000     1.702000000     4.618000000
H    -1.124000000     0.603000000     4.523000000
O     1.018000000     6.157000000    -0.929000000
H     1.593000000     6.338000000    -0.186000000
H     0.855000000     5.215000000    -0.882000000
