161
-3072.70428
C    -1.077000000    -0.989000000     0.136000000
H    -1.762000000    -1.818000000     0.296000000
C     0.306000000    -1.276000000     0.227000000
H     0.706000000    -2.275000000     0.382000000
C     1.215000000    -0.262000000    -0.029000000
C     2.702000000    -0.518000000    -0.125000000
H     2.853000000    -1.372000000    -0.789000000
H     3.134000000     0.320000000    -0.677000000
H     3.242000000    -0.663000000     0.813000000
C     0.751000000     1.055000000    -0.179000000
H     1.444000000     1.867000000    -0.382000000
C    -0.626000000     1.343000000    -0.094000000
H    -0.938000000     2.383000000    -0.050000000
C    -1.603000000     0.335000000     0.127000000
C    -3.052000000     0.552000000     0.099000000
O    -3.472000000     1.719000000     0.105000000
O    -3.820000000    -0.401000000     0.141000000
O    -3.224000000     1.197000000     3.889000000
H    -3.110000000     1.971000000     3.337000000
H    -3.916000000     0.695000000     3.459000000
O     1.815000000     4.633000000    -3.775000000
H     2.499000000     4.138000000    -4.225000000
H     1.884000000     4.361000000    -2.860000000
O    -4.872000000     4.521000000    -3.154000000
H    -5.741000000     4.578000000    -2.757000000
H    -4.929000000     5.072000000    -3.935000000
O    -2.259000000     5.712000000    -1.523000000
H    -2.560000000     6.587000000    -1.769000000
H    -2.885000000     5.118000000    -1.937000000
O     1.509000000     0.804000000    -3.509000000
H     1.425000000     1.002000000    -2.576000000
H     0.657000000     0.443000000    -3.755000000
O     0.278000000     5.327000000     0.505000000
H    -0.357000000     5.861000000     0.981000000
H    -0.245000000     4.849000000    -0.138000000
O    -5.340000000     2.639000000     1.591000000
H    -4.846000000     2.111000000     0.965000000
H    -4.683000000     3.200000000     2.003000000
O     7.333000000    -1.807000000     3.111000000
H     7.791000000    -0.990000000     3.312000000
H     6.713000000    -1.917000000     3.831000000
O     4.753000000    -4.733000000     0.292000000
H     4.548000000    -4.762000000    -0.642000000
H     5.026000000    -3.829000000     0.450000000
O    -7.316000000     0.720000000    -3.596000000
H    -8.084000000     1.276000000    -3.463000000
H    -6.731000000     0.942000000    -2.872000000
O    -3.870000000    -4.222000000     0.559000000
H    -4.472000000    -4.960000000     0.459000000
H    -4.137000000    -3.602000000    -0.119000000
O     0.896000000    -5.690000000     0.240000000
H     0.006000000    -5.481000000     0.524000000
H     1.436000000    -5.546000000     1.017000000
O     0.185000000     3.255000000     2.520000000
H     0.588000000     3.547000000     3.338000000
H     0.498000000     3.879000000     1.864000000
O    -2.799000000     3.340000000     2.296000000
H    -1.886000000     3.594000000     2.428000000
H    -2.777000000     2.749000000     1.544000000
O     6.275000000     0.994000000    -0.047000000
H     6.987000000     0.355000000    -0.036000000
H     5.805000000     0.843000000     0.774000000
O     2.313000000     3.840000000    -1.128000000
H     1.822000000     4.005000000    -0.323000000
H     3.222000000     4.033000000    -0.898000000
O    -2.954000000    -0.095000000    -3.533000000
H    -2.901000000     0.814000000    -3.238000000
H    -3.714000000    -0.114000000    -4.115000000
O     3.194000000     5.101000000     2.183000000
H     3.595000000     4.398000000     1.673000000
H     3.323000000     5.887000000     1.652000000
O    -6.859000000    -1.429000000    -0.987000000
H    -7.269000000    -0.987000000    -1.730000000
H    -5.921000000    -1.391000000    -1.174000000
O    -7.922000000     2.885000000     1.991000000
H    -6.969000000     2.816000000     1.942000000
H    -8.112000000     2.915000000     2.928000000
O    -5.983000000     1.306000000    -1.433000000
H    -6.654000000     1.601000000    -0.818000000
H    -5.156000000     1.457000000    -0.975000000
O     4.589000000     3.481000000     0.789000000
H     4.704000000     2.670000000     1.285000000
H     5.464000000     3.867000000     0.755000000
O    -2.435000000    -3.255000000     3.907000000
H    -2.873000000    -3.183000000     4.755000000
H    -2.992000000    -2.759000000     3.307000000
O     5.414000000    -2.110000000     1.090000000
H     5.095000000    -1.212000000     1.008000000
H     6.144000000    -2.050000000     1.707000000
O    -7.324000000    -2.067000000     1.845000000
H    -6.918000000    -2.049000000     0.979000000
H    -7.854000000    -2.864000000     1.844000000
O     6.033000000     4.676000000    -2.383000000
H     6.069000000     4.912000000    -3.310000000
H     5.618000000     3.814000000    -2.371000000
O    -2.811000000     2.820000000    -2.745000000
H    -3.022000000     2.420000000    -1.901000000
H    -3.624000000     3.244000000    -3.019000000
O     2.150000000    -4.280000000    -1.957000000
H     1.904000000    -3.356000000    -1.914000000
H     1.587000000    -4.708000000    -1.311000000
O     0.053000000     0.166000000     3.298000000
H    -0.180000000    -0.534000000     2.689000000
H     0.015000000     0.965000000     2.772000000
O    -1.563000000    -5.674000000     1.091000000
H    -2.189000000    -4.957000000     0.991000000
H    -2.100000000    -6.466000000     1.068000000
O    -0.467000000    -0.955000000    -4.094000000
H    -0.486000000    -1.779000000    -3.608000000
H    -1.329000000    -0.568000000    -3.943000000
O     1.674000000    -5.453000000     3.014000000
H     2.009000000    -6.088000000     3.648000000
H     0.970000000    -5.001000000     3.478000000
O     5.097000000     2.255000000    -2.861000000
H     4.270000000     2.090000000    -3.315000000
H     5.060000000     1.695000000    -2.086000000
O    -1.167000000     3.482000000    -4.734000000
H    -0.279000000     3.577000000    -4.387000000
H    -1.721000000     3.411000000    -3.957000000
O    -3.634000000    -2.258000000    -1.724000000
H    -3.709000000    -1.735000000    -0.925000000
H    -3.082000000    -1.732000000    -2.303000000
O    -6.265000000    -0.305000000     4.895000000
H    -5.765000000    -0.506000000     4.104000000
H    -7.081000000     0.077000000     4.572000000
O     3.236000000     2.157000000    -5.057000000
H     3.597000000     1.433000000    -5.569000000
H     2.506000000     1.768000000    -4.575000000
O     5.423000000    -1.927000000     5.144000000
H     5.581000000    -2.753000000     5.601000000
H     4.472000000    -1.821000000     5.163000000
O     4.842000000     0.572000000     2.370000000
H     4.163000000     0.232000000     2.952000000
H     5.474000000     0.989000000     2.956000000
O     0.046000000    -3.954000000     4.551000000
H     0.365000000    -3.157000000     4.973000000
H    -0.779000000    -3.695000000     4.141000000
O    -3.930000000    -4.286000000    -3.543000000
H    -4.321000000    -3.946000000    -2.738000000
H    -3.303000000    -3.613000000    -3.806000000
O     3.362000000    -2.536000000     2.933000000
H     2.885000000    -3.288000000     3.282000000
H     4.238000000    -2.873000000     2.748000000
O    -4.952000000    -0.688000000     2.456000000
H    -5.763000000    -1.148000000     2.237000000
H    -4.455000000    -0.677000000     1.638000000
O    -0.632000000    -3.362000000    -2.928000000
H    -0.632000000    -3.757000000    -3.800000000
H    -0.961000000    -4.053000000    -2.352000000
O     5.414000000    -2.528000000    -3.710000000
H     6.033000000    -2.714000000    -3.003000000
H     5.162000000    -3.391000000    -4.040000000
O    -8.749000000     0.154000000     1.449000000
H    -8.497000000     1.057000000     1.643000000
H    -7.920000000    -0.298000000     1.294000000
O     2.872000000     0.077000000     4.062000000
H     2.067000000     0.417000000     3.673000000
H     2.795000000    -0.874000000     3.980000000
O    -1.078000000    -5.953000000    -1.920000000
H    -0.770000000    -6.147000000    -1.035000000
H    -1.671000000    -6.675000000    -2.131000000
