161
-3030.13710
C     0.841000000    -0.986000000    -0.714000000
H     1.525000000    -1.707000000    -1.154000000
C     1.085000000    -0.449000000     0.528000000
H     2.041000000    -0.759000000     0.944000000
C     0.142000000     0.339000000     1.138000000
C     0.541000000     0.876000000     2.533000000
H     1.576000000     1.214000000     2.439000000
H    -0.064000000     1.754000000     2.768000000
H     0.456000000     0.153000000     3.347000000
C    -0.914000000     0.831000000     0.439000000
H    -1.631000000     1.487000000     0.925000000
C    -1.182000000     0.399000000    -0.848000000
H    -1.941000000     0.993000000    -1.349000000
C    -0.263000000    -0.493000000    -1.441000000
C    -0.625000000    -1.053000000    -2.817000000
O    -1.539000000    -0.535000000    -3.481000000
O    -0.044000000    -2.071000000    -3.251000000
O     3.817000000    -2.661000000     2.678000000
H     3.159000000    -3.287000000     2.982000000
H     4.007000000    -2.932000000     1.779000000
O     6.016000000    -0.395000000     0.265000000
H     5.564000000    -0.390000000     1.109000000
H     5.403000000     0.026000000    -0.337000000
O     2.306000000     4.768000000     0.695000000
H     1.582000000     4.210000000     0.409000000
H     3.063000000     4.184000000     0.721000000
O     3.026000000     2.131000000    -1.818000000
H     3.155000000     2.963000000    -2.273000000
H     2.076000000     2.043000000    -1.746000000
O    -3.267000000    -2.319000000    -1.156000000
H    -2.531000000    -2.482000000    -0.567000000
H    -2.954000000    -2.600000000    -2.016000000
O    -0.256000000     3.009000000    -3.709000000
H    -1.165000000     2.715000000    -3.651000000
H     0.032000000     2.727000000    -4.577000000
O    -2.505000000    -5.439000000     0.427000000
H    -3.110000000    -5.439000000     1.169000000
H    -2.282000000    -4.517000000     0.300000000
O     0.333000000     3.336000000    -0.956000000
H     0.108000000     3.278000000    -1.884000000
H    -0.236000000     2.694000000    -0.530000000
O    -3.031000000     2.923000000    -4.220000000
H    -2.953000000     3.740000000    -3.727000000
H    -3.409000000     3.185000000    -5.059000000
O     2.280000000    -1.548000000     6.286000000
H     1.598000000    -0.995000000     5.906000000
H     1.832000000    -2.366000000     6.502000000
O    -1.185000000    -2.538000000     1.007000000
H    -1.107000000    -2.646000000     1.954000000
H    -0.321000000    -2.234000000     0.728000000
O    -5.071000000     2.118000000     4.301000000
H    -4.320000000     1.571000000     4.531000000
H    -5.070000000     2.136000000     3.344000000
O    -0.915000000    -2.209000000     3.811000000
H    -1.787000000    -2.446000000     4.126000000
H    -0.487000000    -1.810000000     4.569000000
O     5.048000000    -3.982000000     0.592000000
H     4.350000000    -4.558000000     0.905000000
H     5.738000000    -4.578000000     0.303000000
O     1.095000000     3.167000000     5.946000000
H     0.689000000     2.349000000     5.659000000
H     1.693000000     2.905000000     6.646000000
O    -3.119000000     4.088000000    -1.592000000
H    -3.531000000     4.843000000    -2.012000000
H    -2.894000000     4.395000000    -0.714000000
O     4.008000000    -2.417000000    -1.599000000
H     4.535000000    -2.544000000    -0.810000000
H     4.152000000    -1.501000000    -1.838000000
O     0.740000000    -4.473000000    -3.139000000
H     0.426000000    -3.572000000    -3.063000000
H     1.180000000    -4.502000000    -3.989000000
O    -5.268000000    -0.352000000    -0.804000000
H    -5.260000000     0.368000000    -1.435000000
H    -4.547000000    -0.919000000    -1.078000000
O     6.950000000     1.690000000     3.221000000
H     6.089000000     2.001000000     2.942000000
H     6.771000000     0.869000000     3.681000000
O    -3.070000000     4.511000000     5.009000000
H    -3.317000000     5.363000000     5.368000000
H    -3.900000000     4.109000000     4.753000000
O    -0.700000000     4.301000000     1.992000000
H    -0.953000000     5.223000000     1.957000000
H     0.056000000     4.282000000     2.578000000
O    -5.069000000    -2.709000000     1.454000000
H    -5.975000000    -2.409000000     1.527000000
H    -4.710000000    -2.210000000     0.720000000
O     3.275000000    -0.550000000    -5.443000000
H     2.399000000    -0.909000000    -5.585000000
H     3.219000000    -0.109000000    -4.595000000
O    -1.428000000     2.252000000     5.457000000
H    -1.868000000     1.707000000     4.805000000
H    -1.852000000     3.106000000     5.382000000
O    -4.864000000     2.140000000    -2.337000000
H    -4.377000000     1.886000000    -3.120000000
H    -4.536000000     3.014000000    -2.124000000
O     0.755000000    -1.058000000    -5.660000000
H     0.441000000    -1.498000000    -4.870000000
H     0.254000000    -1.456000000    -6.371000000
O     4.826000000     0.222000000    -1.961000000
H     5.650000000     0.656000000    -2.183000000
H     4.195000000     0.937000000    -1.874000000
O     1.636000000    -4.358000000     2.899000000
H     0.989000000    -4.050000000     3.533000000
H     1.447000000    -5.291000000     2.797000000
O     2.126000000     3.649000000     3.684000000
H     2.909000000     4.184000000     3.815000000
H     1.712000000     3.616000000     4.546000000
O     0.148000000    -6.063000000    -0.666000000
H    -0.575000000    -5.765000000    -0.115000000
H     0.282000000    -5.350000000    -1.291000000
O    -5.338000000     1.752000000     1.621000000
H    -4.580000000     2.331000000     1.701000000
H    -5.062000000     1.081000000     0.996000000
O    -2.697000000    -3.061000000    -3.849000000
H    -2.042000000    -3.757000000    -3.895000000
H    -2.208000000    -2.259000000    -4.033000000
O    -1.166000000     2.179000000     8.186000000
H    -1.318000000     2.217000000     7.242000000
H    -0.254000000     2.450000000     8.293000000
O     2.697000000    -4.608000000    -5.534000000
H     3.386000000    -4.801000000    -4.899000000
H     2.902000000    -5.163000000    -6.287000000
O    -2.689000000     0.460000000     3.670000000
H    -2.182000000     0.272000000     2.880000000
H    -3.130000000    -0.365000000     3.873000000
O    -3.125000000    -0.578000000    -5.774000000
H    -2.375000000    -0.386000000    -5.210000000
H    -3.816000000     0.005000000    -5.461000000
O     0.190000000    -4.070000000    -6.655000000
H     0.254000000    -3.352000000    -7.284000000
H     1.090000000    -4.379000000    -6.552000000
O    -5.928000000    -2.701000000    -2.862000000
H    -5.211000000    -2.067000000    -2.848000000
H    -5.494000000    -3.552000000    -2.922000000
O     2.825000000    -5.719000000    -2.297000000
H     3.527000000    -5.208000000    -2.701000000
H     2.084000000    -5.114000000    -2.253000000
O    -3.375000000     3.607000000     1.678000000
H    -3.672000000     4.333000000     2.227000000
H    -2.438000000     3.536000000     1.861000000
O    -0.180000000    -0.499000000     5.878000000
H    -0.640000000    -0.938000000     6.594000000
H    -0.562000000     0.378000000     5.850000000
O     5.012000000    -4.181000000    -3.789000000
H     4.608000000    -3.679000000    -3.081000000
H     5.219000000    -3.527000000    -4.457000000
O    -1.282000000    -6.535000000    -3.449000000
H    -0.384000000    -6.206000000    -3.414000000
H    -1.543000000    -6.424000000    -4.363000000
O    -0.383000000     1.747000000    -6.353000000
H    -0.762000000     2.145000000    -7.136000000
H    -0.504000000     0.806000000    -6.480000000
O    -4.716000000    -3.922000000    -5.535000000
H    -3.956000000    -3.714000000    -4.992000000
H    -4.968000000    -4.806000000    -5.268000000
O     4.178000000     2.642000000     1.656000000
H     3.886000000     2.177000000     0.872000000
H     3.370000000     2.945000000     2.070000000
O    -3.998000000    -2.632000000    -7.749000000
H    -4.317000000    -3.120000000    -6.990000000
H    -3.470000000    -1.926000000    -7.376000000
