161
-3047.16309
C     0.566000000    -0.327000000    -1.275000000
H     0.922000000    -0.688000000    -2.237000000
C     0.181000000    -1.242000000    -0.337000000
H     0.326000000    -2.307000000    -0.494000000
C    -0.288000000    -0.802000000     0.909000000
C    -0.579000000    -1.851000000     1.895000000
H     0.074000000    -1.769000000     2.767000000
H    -1.617000000    -1.868000000     2.233000000
H    -0.371000000    -2.856000000     1.523000000
C    -0.527000000     0.598000000     1.123000000
H    -0.987000000     0.846000000     2.076000000
C    -0.092000000     1.522000000     0.146000000
H    -0.230000000     2.594000000     0.263000000
C     0.440000000     1.085000000    -1.065000000
C     0.694000000     2.076000000    -2.218000000
O     0.001000000     3.059000000    -2.167000000
O     1.481000000     1.926000000    -3.135000000
O    -0.723000000    -3.689000000    -2.760000000
H     0.128000000    -4.113000000    -2.648000000
H    -0.942000000    -3.831000000    -3.681000000
O     2.039000000    -5.349000000     6.399000000
H     1.559000000    -5.643000000     7.174000000
H     1.652000000    -4.501000000     6.185000000
O     1.156000000    -1.865000000    -6.856000000
H     1.797000000    -1.813000000    -6.147000000
H     0.920000000    -0.954000000    -7.033000000
O    -3.343000000    -0.232000000    -3.766000000
H    -3.014000000    -0.258000000    -2.867000000
H    -2.576000000    -0.016000000    -4.295000000
O     3.722000000    -1.791000000    -5.287000000
H     3.710000000    -2.646000000    -4.858000000
H     4.470000000    -1.832000000    -5.883000000
O     3.833000000     2.235000000    -2.148000000
H     4.261000000     1.405000000    -1.934000000
H     2.952000000     1.985000000    -2.427000000
O     4.551000000     0.011000000    -0.968000000
H     4.814000000    -0.684000000    -1.572000000
H     4.423000000    -0.435000000    -0.131000000
O     4.606000000     3.572000000    -4.391000000
H     4.175000000     4.401000000    -4.182000000
H     4.383000000     2.996000000    -3.660000000
O    -2.521000000    -0.681000000     4.871000000
H    -1.572000000    -0.592000000     4.786000000
H    -2.871000000     0.146000000     4.540000000
O     1.462000000     5.147000000    -2.244000000
H     1.943000000     5.386000000    -3.037000000
H     0.913000000     4.410000000    -2.510000000
O    -3.860000000     2.680000000    -2.091000000
H    -3.469000000     1.827000000    -1.904000000
H    -3.264000000     3.084000000    -2.722000000
O    -3.451000000     2.092000000     4.387000000
H    -4.049000000     2.821000000     4.553000000
H    -2.642000000     2.339000000     4.836000000
O     2.023000000    -2.552000000     5.895000000
H     2.841000000    -2.124000000     6.150000000
H     1.348000000    -1.892000000     6.053000000
O     4.902000000    -5.316000000     0.336000000
H     4.186000000    -4.703000000     0.502000000
H     4.477000000    -6.172000000     0.286000000
O     0.498000000    -0.318000000     7.105000000
H    -0.155000000    -0.805000000     7.606000000
H     0.311000000     0.601000000     7.297000000
O    -2.097000000    -7.064000000     4.051000000
H    -1.211000000    -6.746000000     3.876000000
H    -1.973000000    -7.960000000     4.365000000
O    -2.176000000    -4.776000000     1.258000000
H    -2.546000000    -4.380000000     2.047000000
H    -1.237000000    -4.830000000     1.435000000
O     2.920000000     7.408000000    -0.516000000
H     2.512000000     6.607000000    -0.844000000
H     3.051000000     7.246000000     0.418000000
O    -3.271000000    -3.356000000     3.490000000
H    -3.092000000    -2.705000000     4.168000000
H    -3.980000000    -2.974000000     2.972000000
O     0.544000000    -6.314000000     0.076000000
H     0.429000000    -7.123000000     0.576000000
H    -0.298000000    -6.180000000    -0.359000000
O    -2.744000000     7.038000000     0.972000000
H    -2.123000000     6.339000000     0.769000000
H    -2.739000000     7.597000000     0.195000000
O     1.788000000    -5.481000000    -2.366000000
H     1.740000000    -6.387000000    -2.672000000
H     1.407000000    -5.505000000    -1.488000000
O     5.694000000     3.149000000    -0.506000000
H     5.194000000     3.200000000    -1.321000000
H     5.372000000     2.357000000    -0.077000000
O    -1.056000000     0.585000000    -5.415000000
H    -1.089000000     0.431000000    -6.359000000
H    -0.134000000     0.470000000    -5.185000000
O     1.289000000     3.293000000    -5.334000000
H     1.816000000     4.061000000    -5.112000000
H     1.328000000     2.742000000    -4.552000000
O     2.551000000     3.884000000     0.145000000
H     2.004000000     4.104000000    -0.609000000
H     3.444000000     4.077000000    -0.142000000
O     2.747000000     5.745000000    -4.740000000
H     3.355000000     6.347000000    -4.311000000
H     2.155000000     6.313000000    -5.233000000
O    -2.757000000    -3.038000000    -0.826000000
H    -1.937000000    -3.052000000    -1.318000000
H    -2.571000000    -3.541000000    -0.034000000
O    -1.560000000     5.405000000    -1.680000000
H    -1.211000000     6.118000000    -2.216000000
H    -0.823000000     4.803000000    -1.575000000
O     3.667000000     2.408000000     2.092000000
H     3.366000000     2.868000000     1.308000000
H     3.846000000     3.104000000     2.724000000
O    -3.153000000    -0.118000000    -0.969000000
H    -2.778000000    -0.971000000    -0.749000000
H    -3.244000000     0.327000000    -0.127000000
O    -0.806000000     4.962000000     0.922000000
H     0.052000000     5.371000000     1.032000000
H    -1.029000000     5.116000000     0.004000000
O     0.627000000    -6.348000000     3.690000000
H     0.915000000    -7.074000000     3.137000000
H     1.113000000    -6.460000000     4.506000000
O     1.743000000    -4.498000000     1.788000000
H     1.401000000    -4.632000000     2.671000000
H     1.402000000    -5.237000000     1.284000000
O    -4.143000000    -5.436000000     5.202000000
H    -3.897000000    -4.666000000     4.689000000
H    -3.808000000    -6.177000000     4.698000000
O    -2.375000000     5.506000000    -5.502000000
H    -2.465000000     4.946000000    -4.731000000
H    -1.768000000     5.034000000    -6.072000000
O    -1.873000000     2.917000000    -4.030000000
H    -1.495000000     2.078000000    -4.292000000
H    -1.195000000     3.329000000    -3.495000000
O     4.432000000     0.062000000     3.908000000
H     3.905000000     0.448000000     3.209000000
H     4.501000000     0.754000000     4.566000000
O     2.482000000     2.024000000    -7.860000000
H     1.858000000     2.535000000    -7.344000000
H     2.793000000     1.348000000    -7.258000000
O    -5.496000000    -2.445000000     2.301000000
H    -5.830000000    -1.732000000     1.757000000
H    -5.833000000    -3.240000000     1.888000000
O    -0.685000000     4.132000000    -7.022000000
H    -0.202000000     4.189000000    -7.846000000
H    -0.023000000     3.896000000    -6.372000000
O     3.618000000    -2.697000000     0.948000000
H     2.966000000    -3.294000000     1.315000000
H     3.217000000    -1.831000000     1.021000000
O    -1.858000000    -6.107000000    -1.291000000
H    -2.380000000    -6.033000000    -0.492000000
H    -2.364000000    -5.636000000    -1.953000000
O    -3.970000000     1.004000000     1.681000000
H    -4.362000000     0.992000000     2.554000000
H    -3.726000000     1.919000000     1.540000000
O     5.395000000    -2.657000000    -2.169000000
H     4.615000000    -3.199000000    -2.286000000
H     6.017000000    -3.227000000    -1.718000000
O     2.161000000     0.374000000    -5.395000000
H     1.874000000     0.842000000    -4.611000000
H     2.984000000    -0.042000000    -5.138000000
O    -3.204000000     3.534000000     0.857000000
H    -3.187000000     3.088000000     0.009000000
H    -2.306000000     3.840000000     0.984000000
O     2.704000000    -0.133000000     1.411000000
H     1.992000000    -0.102000000     0.772000000
H     2.867000000     0.783000000     1.633000000
