161
-3057.66617
C     0.644000000    -0.354000000    -1.290000000
H     1.174000000    -0.580000000    -2.212000000
C     1.227000000    -0.118000000    -0.037000000
H     2.284000000    -0.263000000     0.171000000
C     0.559000000     0.290000000     1.043000000
C     1.282000000     0.321000000     2.367000000
H     1.963000000    -0.501000000     2.600000000
H     1.959000000     1.177000000     2.401000000
H     0.561000000     0.352000000     3.186000000
C    -0.816000000     0.485000000     0.966000000
H    -1.318000000     0.541000000     1.929000000
C    -1.471000000     0.218000000    -0.267000000
H    -2.551000000     0.340000000    -0.300000000
C    -0.781000000    -0.188000000    -1.385000000
C    -1.385000000    -0.496000000    -2.715000000
O    -2.511000000    -1.009000000    -2.728000000
O    -0.828000000    -0.218000000    -3.723000000
O     4.798000000     1.339000000    -0.608000000
H     4.467000000     1.152000000    -1.487000000
H     5.478000000     0.681000000    -0.464000000
O     1.364000000     2.601000000    -2.530000000
H     0.495000000     2.581000000    -2.930000000
H     1.219000000     2.974000000    -1.660000000
O    -3.902000000    -2.079000000    -0.230000000
H    -3.058000000    -2.166000000    -0.673000000
H    -4.524000000    -2.515000000    -0.813000000
O    -0.909000000     2.376000000    -4.179000000
H    -0.737000000     1.442000000    -4.293000000
H    -1.826000000     2.484000000    -4.429000000
O    -0.590000000    -4.983000000    -0.281000000
H    -1.171000000    -5.592000000     0.175000000
H    -0.270000000    -4.398000000     0.406000000
O    -5.261000000     2.170000000     0.080000000
H    -5.031000000     1.449000000     0.665000000
H    -5.273000000     1.776000000    -0.793000000
O     0.936000000     3.354000000     0.053000000
H     0.465000000     3.909000000     0.675000000
H     0.478000000     2.514000000     0.087000000
O    -3.465000000     2.412000000    -4.812000000
H    -3.521000000     3.132000000    -4.184000000
H    -3.666000000     2.814000000    -5.657000000
O     1.816000000    -1.180000000     7.091000000
H     2.584000000    -0.797000000     6.667000000
H     1.771000000    -2.071000000     6.745000000
O     3.487000000     1.718000000     5.550000000
H     4.086000000     2.194000000     6.126000000
H     3.863000000     0.840000000     5.487000000
O     0.049000000    -2.971000000     1.722000000
H    -0.283000000    -2.503000000     2.488000000
H     0.543000000    -2.312000000     1.234000000
O    -1.761000000    -1.478000000     3.692000000
H    -1.549000000    -0.798000000     4.331000000
H    -2.467000000    -1.101000000     3.167000000
O     6.222000000    -1.409000000     1.247000000
H     5.901000000    -2.258000000     1.552000000
H     5.825000000    -0.774000000     1.843000000
O     0.866000000     2.367000000     5.123000000
H     0.800000000     3.235000000     5.522000000
H     1.789000000     2.131000000     5.215000000
O     2.245000000    -4.774000000     3.840000000
H     2.718000000    -5.157000000     3.102000000
H     1.496000000    -5.355000000     3.972000000
O     4.183000000    -4.349000000    -2.640000000
H     5.136000000    -4.271000000    -2.588000000
H     3.868000000    -3.445000000    -2.645000000
O     3.669000000    -2.563000000     3.589000000
H     3.888000000    -2.540000000     2.658000000
H     3.101000000    -3.328000000     3.684000000
O    -1.650000000    -2.091000000     7.159000000
H    -0.919000000    -1.478000000     7.082000000
H    -2.040000000    -2.109000000     6.285000000
O    -2.442000000     4.336000000     5.408000000
H    -2.242000000     3.762000000     4.669000000
H    -1.586000000     4.581000000     5.759000000
O    -0.944000000     4.178000000     1.789000000
H    -1.210000000     4.957000000     2.278000000
H    -1.179000000     3.446000000     2.359000000
O     2.313000000    -3.797000000     6.346000000
H     2.222000000    -4.168000000     5.468000000
H     2.497000000    -4.550000000     6.907000000
O     3.656000000    -1.642000000    -3.484000000
H     3.873000000    -0.773000000    -3.146000000
H     2.853000000    -1.510000000    -3.988000000
O    -1.397000000     2.425000000     3.539000000
H    -2.002000000     1.724000000     3.781000000
H    -0.538000000     2.107000000     3.818000000
O    -4.359000000     0.855000000    -2.728000000
H    -3.779000000     0.097000000    -2.659000000
H    -4.116000000     1.269000000    -3.555000000
O     1.112000000    -1.537000000    -4.788000000
H     0.391000000    -1.090000000    -4.346000000
H     0.780000000    -2.419000000    -4.955000000
O     4.607000000    -0.742000000     5.797000000
H     4.297000000    -1.523000000     5.339000000
H     4.948000000    -1.072000000     6.629000000
O    -4.967000000     4.937000000    -0.549000000
H    -5.211000000     4.044000000    -0.307000000
H    -5.172000000     5.461000000     0.225000000
O    -6.915000000     0.208000000    -2.010000000
H    -7.177000000     1.115000000    -2.168000000
H    -6.082000000     0.115000000    -2.471000000
O    -6.217000000    -2.616000000    -4.642000000
H    -6.952000000    -3.213000000    -4.785000000
H    -6.495000000    -1.792000000    -5.042000000
O     3.555000000     1.019000000    -2.867000000
H     2.786000000     1.548000000    -2.659000000
H     3.768000000     1.250000000    -3.771000000
O     2.566000000    -4.084000000    -0.161000000
H     1.634000000    -4.141000000    -0.374000000
H     3.012000000    -4.294000000    -0.982000000
O    -0.834000000     1.718000000    -6.909000000
H    -1.460000000     2.357000000    -7.249000000
H    -1.155000000     0.875000000    -7.229000000
O     5.419000000     0.369000000     3.205000000
H     4.656000000     0.926000000     3.052000000
H     5.417000000     0.214000000     4.149000000
O    -0.384000000     4.499000000    -6.176000000
H    -1.107000000     5.015000000    -5.821000000
H    -0.187000000     3.860000000    -5.492000000
O    -4.727000000    -0.223000000     1.496000000
H    -4.387000000    -0.748000000     0.772000000
H    -5.326000000    -0.810000000     1.957000000
O    -2.501000000    -3.659000000    -3.841000000
H    -1.727000000    -3.655000000    -4.403000000
H    -2.423000000    -2.861000000    -3.318000000
O     3.451000000     5.706000000    -0.498000000
H     2.997000000     5.101000000     0.089000000
H     4.236000000     5.231000000    -0.770000000
O    -3.750000000     0.785000000     3.680000000
H    -4.098000000     0.371000000     2.889000000
H    -4.432000000     0.652000000     4.339000000
O    -2.981000000    -0.050000000    -5.616000000
H    -2.266000000    -0.212000000    -5.001000000
H    -3.312000000     0.816000000    -5.378000000
O    -0.227000000    -3.839000000    -5.342000000
H     0.363000000    -4.591000000    -5.373000000
H    -0.138000000    -3.429000000    -6.203000000
O    -5.414000000     3.140000000     2.801000000
H    -5.204000000     2.987000000     1.879000000
H    -4.927000000     2.465000000     3.273000000
O    -1.204000000     0.278000000     5.681000000
H    -1.845000000     0.689000000     6.261000000
H    -0.576000000     0.973000000     5.487000000
O     2.422000000    -4.815000000    -4.953000000
H     2.924000000    -4.524000000    -4.191000000
H     3.051000000    -4.795000000    -5.675000000
O     2.703000000     1.095000000    -6.220000000
H     2.215000000     1.420000000    -6.977000000
H     2.167000000     0.378000000    -5.880000000
O     5.723000000     3.887000000     3.044000000
H     6.309000000     3.145000000     2.897000000
H     4.926000000     3.662000000     2.563000000
O    -5.007000000    -3.543000000    -2.133000000
H    -4.133000000    -3.725000000    -2.480000000
H    -5.495000000    -3.200000000    -2.881000000
O     3.538000000     3.129000000     1.381000000
H     3.932000000     2.588000000     0.697000000
H     2.639000000     3.271000000     1.086000000
O    -3.741000000    -2.373000000    -6.376000000
H    -4.270000000    -2.631000000    -5.621000000
H    -3.441000000    -1.489000000    -6.168000000
