161
-3055.33780
C     0.741000000    -1.337000000    -0.161000000
H     1.257000000    -2.286000000    -0.045000000
C     1.236000000    -0.176000000     0.425000000
H     2.179000000    -0.199000000     0.966000000
C     0.541000000     0.985000000     0.475000000
C     0.976000000     2.238000000     1.158000000
H     0.222000000     2.619000000     1.850000000
H     1.855000000     2.059000000     1.781000000
H     1.188000000     3.030000000     0.437000000
C    -0.681000000     1.124000000    -0.194000000
H    -1.183000000     2.087000000    -0.205000000
C    -1.188000000    -0.084000000    -0.820000000
H    -2.187000000    -0.019000000    -1.242000000
C    -0.518000000    -1.315000000    -0.717000000
C    -1.287000000    -2.554000000    -1.155000000
O    -2.496000000    -2.568000000    -1.302000000
O    -0.653000000    -3.601000000    -1.258000000
O     1.770000000     7.226000000     0.281000000
H     1.234000000     6.436000000     0.352000000
H     2.582000000     6.928000000    -0.129000000
O    -2.544000000    -3.387000000     3.154000000
H    -1.876000000    -3.530000000     2.484000000
H    -3.344000000    -3.752000000     2.777000000
O    -4.983000000    -3.950000000     2.290000000
H    -5.596000000    -3.867000000     3.021000000
H    -5.538000000    -3.953000000     1.511000000
O    -0.814000000    -4.595000000     1.173000000
H    -0.399000000    -5.410000000     0.894000000
H    -0.985000000    -4.121000000     0.359000000
O     2.494000000    -2.494000000    -2.692000000
H     2.131000000    -1.623000000    -2.858000000
H     2.667000000    -2.851000000    -3.563000000
O    -3.724000000    -6.674000000    -3.862000000
H    -3.995000000    -5.828000000    -4.217000000
H    -2.813000000    -6.544000000    -3.599000000
O     0.192000000    -1.080000000     3.406000000
H     0.577000000    -1.836000000     3.848000000
H     0.300000000    -1.267000000     2.473000000
O    -2.961000000     4.685000000     0.439000000
H    -3.060000000     4.071000000     1.166000000
H    -3.202000000     4.178000000    -0.337000000
O    -3.114000000    -1.216000000    -3.601000000
H    -3.072000000    -1.789000000    -2.835000000
H    -2.421000000    -1.537000000    -4.178000000
O     1.181000000    -0.056000000    -3.646000000
H     0.755000000     0.002000000    -2.791000000
H     0.535000000    -0.485000000    -4.208000000
O    -3.802000000     3.167000000     4.143000000
H    -3.241000000     2.402000000     4.014000000
H    -4.457000000     2.880000000     4.779000000
O     0.931000000    -3.924000000     3.823000000
H     1.798000000    -4.330000000     3.824000000
H     0.510000000    -4.261000000     3.031000000
O     4.263000000     0.083000000    -1.478000000
H     4.552000000    -0.118000000    -2.368000000
H     4.226000000    -0.768000000    -1.041000000
O     4.161000000    -2.483000000     5.232000000
H     3.942000000    -1.846000000     4.552000000
H     4.143000000    -3.328000000     4.783000000
O    -2.917000000    -0.369000000     2.910000000
H    -2.133000000     0.051000000     3.262000000
H    -2.819000000    -1.293000000     3.143000000
O    -4.511000000     1.032000000    -3.622000000
H    -3.795000000     0.398000000    -3.583000000
H    -4.199000000     1.710000000    -4.220000000
O     3.092000000    -6.349000000    -3.457000000
H     3.914000000    -6.360000000    -2.967000000
H     2.457000000    -5.969000000    -2.850000000
O    -1.427000000    -2.705000000    -5.116000000
H    -1.741000000    -2.337000000    -5.943000000
H    -0.588000000    -3.109000000    -5.336000000
O    -7.014000000    -3.289000000    -0.326000000
H    -7.716000000    -3.723000000    -0.811000000
H    -6.210000000    -3.576000000    -0.760000000
O    -0.103000000     6.162000000    -2.512000000
H     0.304000000     5.886000000    -1.691000000
H    -0.661000000     5.426000000    -2.763000000
O     1.349000000     0.300000000     6.700000000
H     1.724000000     0.364000000     5.821000000
H     1.749000000    -0.485000000     7.074000000
O    -1.709000000     1.556000000     5.023000000
H    -0.789000000     1.791000000     5.142000000
H    -2.053000000     1.476000000     5.913000000
O    -0.397000000     5.577000000     0.792000000
H    -1.301000000     5.542000000     0.478000000
H    -0.455000000     5.344000000     1.718000000
O    -6.218000000    -1.100000000    -3.962000000
H    -6.698000000    -0.490000000    -4.523000000
H    -5.442000000    -0.611000000    -3.686000000
O    -6.638000000     0.684000000     1.969000000
H    -7.272000000     0.047000000     1.638000000
H    -5.888000000     0.603000000     1.381000000
O    -2.616000000     3.413000000    -2.025000000
H    -1.880000000     3.530000000    -2.626000000
H    -3.366000000     3.245000000    -2.596000000
O     1.168000000     3.898000000     4.842000000
H     1.620000000     4.292000000     4.096000000
H     1.345000000     2.961000000     4.762000000
O    -4.717000000    -3.986000000    -1.971000000
H    -4.832000000    -4.003000000    -2.921000000
H    -3.819000000    -3.682000000    -1.844000000
O    -3.586000000    -6.579000000    -1.031000000
H    -4.116000000    -5.951000000    -1.522000000
H    -3.591000000    -7.370000000    -1.569000000
O     2.310000000    -4.425000000     0.992000000
H     2.592000000    -5.117000000     1.591000000
H     1.806000000    -4.883000000     0.319000000
O     1.527000000     1.184000000     4.153000000
H     1.056000000     0.377000000     3.942000000
H     2.252000000     1.208000000     3.528000000
O    -0.344000000    -7.056000000     0.043000000
H    -0.109000000    -7.907000000     0.413000000
H    -1.297000000    -7.016000000     0.119000000
O     4.186000000     2.736000000    -1.578000000
H     4.191000000     1.794000000    -1.750000000
H     3.618000000     3.100000000    -2.257000000
O    -1.082000000     6.303000000     5.620000000
H    -1.150000000     5.800000000     4.808000000
H    -0.406000000     6.957000000     5.441000000
O     1.212000000    -5.571000000    -1.629000000
H     0.744000000    -4.754000000    -1.800000000
H     0.587000000    -6.109000000    -1.144000000
O    -1.369000000     4.359000000     3.599000000
H    -0.854000000     3.873000000     4.244000000
H    -2.257000000     4.015000000     3.694000000
O    -3.935000000    -0.928000000     0.217000000
H    -3.539000000    -0.693000000     1.057000000
H    -3.313000000    -1.540000000    -0.177000000
O     4.112000000     4.429000000     3.495000000
H     4.049000000     5.329000000     3.174000000
H     3.745000000     4.464000000     4.379000000
O    -1.636000000    -5.045000000    -3.332000000
H    -1.663000000    -4.305000000    -3.939000000
H    -1.634000000    -4.642000000    -2.463000000
O    -0.252000000    -6.289000000    -5.440000000
H    -0.046000000    -5.400000000    -5.730000000
H    -0.437000000    -6.199000000    -4.505000000
O    -4.762000000    -4.083000000    -4.708000000
H    -5.173000000    -3.220000000    -4.658000000
H    -4.489000000    -4.165000000    -5.622000000
O    -0.895000000     3.826000000    -4.219000000
H     0.020000000     3.566000000    -4.325000000
H    -1.230000000     3.893000000    -5.113000000
O     4.108000000     5.846000000    -1.042000000
H     4.427000000     4.949000000    -1.135000000
H     4.756000000     6.381000000    -1.501000000
O     4.091000000     1.747000000     2.737000000
H     3.819000000     2.634000000     2.973000000
H     4.782000000     1.873000000     2.087000000
O     5.950000000     1.654000000     0.563000000
H     6.050000000     0.702000000     0.567000000
H     5.114000000     1.805000000     0.122000000
O    -5.443000000     0.756000000    -1.097000000
H    -4.828000000     0.227000000    -0.590000000
H    -5.170000000     0.634000000    -2.007000000
O     3.808000000    -2.268000000    -0.336000000
H     3.508000000    -2.642000000    -1.165000000
H     3.689000000    -2.973000000     0.301000000
O     3.743000000    -1.138000000     2.809000000
H     4.121000000    -0.259000000     2.803000000
H     3.571000000    -1.332000000     1.888000000
