161
-3081.60998
C     0.583000000    -1.108000000    -0.745000000
H     1.097000000    -1.983000000    -1.134000000
C     1.155000000    -0.506000000     0.356000000
H     2.109000000    -0.845000000     0.754000000
C     0.505000000     0.555000000     0.994000000
C     1.046000000     1.297000000     2.170000000
H     1.510000000     2.234000000     1.856000000
H     0.264000000     1.571000000     2.881000000
H     1.794000000     0.681000000     2.675000000
C    -0.706000000     1.014000000     0.471000000
H    -1.162000000     1.905000000     0.894000000
C    -1.196000000     0.437000000    -0.739000000
H    -2.118000000     0.817000000    -1.170000000
C    -0.657000000    -0.723000000    -1.254000000
C    -1.227000000    -1.553000000    -2.372000000
O    -2.382000000    -1.307000000    -2.707000000
O    -0.614000000    -2.489000000    -2.922000000
O     0.322000000     5.061000000     1.795000000
H     0.071000000     4.659000000     2.627000000
H     1.215000000     5.375000000     1.941000000
O     2.388000000    -4.510000000     2.874000000
H     2.327000000    -5.401000000     3.217000000
H     2.775000000    -4.614000000     2.004000000
O     5.540000000    -0.926000000     1.473000000
H     5.041000000    -1.402000000     2.136000000
H     4.918000000    -0.785000000     0.760000000
O     2.846000000     6.065000000     2.327000000
H     2.897000000     6.759000000     1.670000000
H     3.714000000     5.662000000     2.318000000
O     4.299000000     1.049000000    -1.682000000
H     4.556000000     1.766000000    -1.101000000
H     4.535000000     1.354000000    -2.558000000
O    -3.728000000    -3.123000000    -1.053000000
H    -3.842000000    -2.934000000    -0.121000000
H    -3.223000000    -2.381000000    -1.387000000
O    -0.423000000     1.368000000    -5.145000000
H    -0.064000000     1.705000000    -5.966000000
H     0.304000000     0.892000000    -4.743000000
O     1.500000000     2.000000000    -2.217000000
H     1.581000000     1.337000000    -2.903000000
H     0.948000000     1.589000000    -1.552000000
O     1.170000000    -6.889000000    -4.325000000
H     1.947000000    -7.280000000    -3.926000000
H     0.828000000    -6.298000000    -3.655000000
O    -2.451000000     5.349000000    -1.866000000
H    -2.020000000     4.738000000    -2.464000000
H    -3.295000000     5.532000000    -2.279000000
O    -4.826000000     0.824000000    -6.026000000
H    -5.096000000     1.663000000    -5.654000000
H    -3.957000000     0.666000000    -5.656000000
O    -1.668000000     3.612000000    -3.758000000
H    -1.998000000     3.720000000    -4.649000000
H    -1.133000000     2.819000000    -3.795000000
O     3.748000000    -0.631000000     5.294000000
H     4.299000000    -0.317000000     6.011000000
H     2.887000000    -0.252000000     5.471000000
O     1.714000000     1.155000000     6.118000000
H     0.821000000     0.818000000     6.038000000
H     1.719000000     1.949000000     5.583000000
O    -4.365000000    -2.001000000     1.419000000
H    -4.140000000    -2.513000000     2.195000000
H    -4.800000000    -1.222000000     1.764000000
O     6.651000000    -1.316000000    -1.022000000
H     6.370000000    -1.020000000    -0.156000000
H     5.892000000    -1.779000000    -1.376000000
O    -0.238000000    -3.171000000     4.098000000
H     0.578000000    -3.488000000     3.710000000
H    -0.087000000    -3.218000000     5.042000000
O    -2.392000000    -1.726000000     3.515000000
H    -1.643000000    -2.301000000     3.668000000
H    -2.303000000    -1.456000000     2.600000000
O    -4.132000000     4.130000000     0.372000000
H    -4.802000000     4.746000000     0.671000000
H    -3.408000000     4.686000000     0.085000000
O     3.919000000    -2.292000000     3.047000000
H     3.230000000    -2.950000000     3.138000000
H     3.744000000    -1.664000000     3.748000000
O     2.742000000    -3.559000000    -2.465000000
H     2.039000000    -4.208000000    -2.451000000
H     3.420000000    -3.951000000    -3.016000000
O    -2.535000000    -4.474000000    -3.342000000
H    -1.976000000    -3.755000000    -3.635000000
H    -2.889000000    -4.176000000    -2.504000000
O    -4.727000000     0.179000000    -2.413000000
H    -4.025000000    -0.470000000    -2.449000000
H    -5.359000000    -0.116000000    -3.069000000
O    -1.876000000     6.612000000     0.794000000
H    -1.350000000     5.945000000     1.235000000
H    -1.959000000     6.296000000    -0.106000000
O    -5.620000000     0.031000000     2.861000000
H    -5.196000000     0.446000000     2.111000000
H    -6.519000000    -0.128000000     2.571000000
O    -0.049000000     3.480000000     4.537000000
H    -0.283000000     3.978000000     5.320000000
H    -0.858000000     3.034000000     4.286000000
O    -2.817000000     2.837000000     3.553000000
H    -3.127000000     2.782000000     2.649000000
H    -3.283000000     2.137000000     4.009000000
O     1.982000000     0.103000000    -4.234000000
H     1.836000000    -0.842000000    -4.207000000
H     2.863000000     0.200000000    -4.595000000
O    -4.902000000     4.408000000    -2.518000000
H    -5.772000000     4.764000000    -2.341000000
H    -4.662000000     3.949000000    -1.713000000
O     1.183000000    -2.793000000    -4.785000000
H     0.389000000    -2.739000000    -4.253000000
H     1.779000000    -3.338000000    -4.272000000
O    -6.537000000    -0.809000000    -4.176000000
H    -6.208000000    -0.537000000    -5.033000000
H    -6.215000000    -1.704000000    -4.070000000
O    -3.802000000     0.179000000     4.807000000
H    -3.253000000    -0.378000000     4.255000000
H    -4.652000000     0.188000000     4.367000000
O    -2.660000000    -0.072000000    -4.995000000
H    -1.956000000     0.570000000    -5.085000000
H    -2.556000000    -0.419000000    -4.109000000
O     3.846000000    -1.596000000    -0.744000000
H     3.449000000    -2.124000000    -1.437000000
H     3.851000000    -0.705000000    -1.095000000
O     0.401000000    -5.064000000    -2.222000000
H    -0.232000000    -5.724000000    -1.938000000
H    -0.122000000    -4.274000000    -2.358000000
O    -4.171000000     1.352000000     0.916000000
H    -4.175000000     2.309000000     0.948000000
H    -4.275000000     1.143000000    -0.012000000
O    -5.398000000    -3.754000000    -2.989000000
H    -5.087000000    -3.359000000    -2.174000000
H    -4.737000000    -3.514000000    -3.639000000
O     1.356000000     4.900000000    -2.114000000
H     1.760000000     4.983000000    -1.251000000
H     1.114000000     3.976000000    -2.178000000
O    -1.202000000     0.378000000     5.419000000
H    -2.077000000     0.702000000     5.633000000
H    -1.328000000    -0.147000000     4.629000000
O    -3.548000000    -2.789000000    -5.708000000
H    -2.958000000    -2.801000000    -6.462000000
H    -3.522000000    -1.884000000    -5.398000000
O    -1.441000000    -7.078000000    -2.406000000
H    -2.254000000    -7.071000000    -1.900000000
H    -1.666000000    -6.644000000    -3.228000000
O     3.026000000    -4.139000000    -6.822000000
H     3.634000000    -4.386000000    -6.125000000
H     2.217000000    -3.911000000    -6.364000000
O    -3.078000000    -6.834000000    -4.565000000
H    -3.065000000    -6.024000000    -4.055000000
H    -3.013000000    -6.545000000    -5.475000000
O    -0.969000000    -3.199000000    -6.960000000
H    -0.249000000    -2.843000000    -6.440000000
H    -0.855000000    -4.148000000    -6.911000000
O     6.270000000     2.083000000     3.572000000
H     6.738000000     2.842000000     3.223000000
H     6.238000000     1.466000000     2.841000000
O     5.093000000     3.488000000    -0.484000000
H     5.845000000     2.970000000    -0.199000000
H     5.088000000     4.246000000     0.102000000
O     3.819000000    -4.109000000     0.405000000
H     4.706000000    -4.333000000     0.123000000
H     3.817000000    -3.153000000     0.450000000
O     1.845000000    -5.672000000    -0.066000000
H     1.377000000    -5.289000000    -0.808000000
H     2.534000000    -5.039000000     0.135000000
