161
-3049.66857
C     0.662000000    -1.244000000    -0.504000000
H     1.277000000    -2.092000000    -0.794000000
C     1.288000000    -0.123000000     0.029000000
H     2.373000000    -0.092000000    -0.016000000
C     0.576000000     1.024000000     0.497000000
C     1.219000000     2.347000000     0.847000000
H     0.723000000     2.720000000     1.746000000
H     2.296000000     2.280000000     1.012000000
H     1.184000000     3.134000000     0.090000000
C    -0.773000000     0.919000000     0.347000000
H    -1.395000000     1.778000000     0.589000000
C    -1.449000000    -0.168000000    -0.181000000
H    -2.529000000    -0.298000000    -0.196000000
C    -0.717000000    -1.288000000    -0.524000000
C    -1.411000000    -2.593000000    -0.859000000
O    -2.576000000    -2.737000000    -0.911000000
O    -0.749000000    -3.570000000    -1.174000000
O     0.355000000     6.244000000     0.644000000
H    -0.578000000     6.207000000     0.854000000
H     0.383000000     6.290000000    -0.312000000
O    -3.232000000    -4.515000000     3.645000000
H    -3.154000000    -4.696000000     2.708000000
H    -2.425000000    -4.862000000     4.025000000
O    -5.899000000    -5.177000000     1.259000000
H    -6.163000000    -5.063000000     2.172000000
H    -5.046000000    -4.747000000     1.202000000
O     2.911000000     3.624000000    -3.014000000
H     2.746000000     3.644000000    -3.957000000
H     2.311000000     2.957000000    -2.680000000
O    -2.952000000    -4.811000000     1.045000000
H    -2.361000000    -5.527000000     0.811000000
H    -3.301000000    -4.505000000     0.208000000
O     4.094000000    -1.744000000    -3.057000000
H     4.662000000    -2.105000000    -3.738000000
H     3.425000000    -2.416000000    -2.923000000
O    -1.296000000    -0.741000000     2.903000000
H    -0.932000000    -1.622000000     2.816000000
H    -1.091000000    -0.314000000     2.072000000
O    -4.593000000     3.325000000     1.591000000
H    -4.895000000     2.417000000     1.626000000
H    -4.260000000     3.432000000     0.700000000
O    -4.184000000    -1.125000000    -2.370000000
H    -3.684000000    -1.751000000    -1.847000000
H    -3.520000000    -0.629000000    -2.849000000
O    -1.810000000     0.129000000    -3.339000000
H    -0.902000000    -0.141000000    -3.478000000
H    -2.207000000     0.089000000    -4.209000000
O    -0.616000000    -7.593000000    -2.593000000
H    -0.720000000    -6.658000000    -2.767000000
H    -1.137000000    -8.022000000    -3.271000000
O    -0.732000000     4.102000000     3.030000000
H    -0.028000000     3.544000000     3.361000000
H    -0.669000000     4.029000000     2.078000000
O     5.196000000     4.565000000    -0.153000000
H     5.335000000     4.325000000    -1.069000000
H     4.977000000     3.740000000     0.280000000
O     2.912000000     5.959000000     1.200000000
H     3.250000000     6.025000000     0.307000000
H     1.961000000     5.916000000     1.094000000
O    -0.503000000    -3.238000000     2.311000000
H    -1.088000000    -3.449000000     1.583000000
H    -0.308000000    -4.084000000     2.714000000
O     5.314000000    -0.978000000    -0.379000000
H     5.271000000    -1.906000000    -0.148000000
H     5.073000000    -0.949000000    -1.304000000
O     2.874000000     5.245000000     4.624000000
H     2.980000000     6.080000000     5.079000000
H     1.969000000     5.255000000     4.311000000
O    -3.627000000    -1.725000000     4.022000000
H    -2.973000000    -1.344000000     3.436000000
H    -3.549000000    -2.669000000     3.886000000
O     3.090000000    -5.175000000    -0.421000000
H     3.494000000    -6.029000000    -0.574000000
H     2.286000000    -5.374000000     0.060000000
O    -1.646000000    -3.614000000    -5.401000000
H    -2.251000000    -2.895000000    -5.583000000
H    -0.780000000    -3.249000000    -5.579000000
O    -6.919000000    -2.401000000    -1.356000000
H    -7.366000000    -2.984000000    -1.969000000
H    -6.002000000    -2.424000000    -1.630000000
O    -2.074000000     0.892000000     5.107000000
H    -2.351000000    -0.020000000     5.019000000
H    -1.451000000     1.023000000     4.393000000
O    -2.108000000     5.992000000     1.446000000
H    -1.866000000     5.235000000     1.979000000
H    -3.056000000     6.071000000     1.558000000
O    -5.015000000     0.692000000     1.278000000
H    -5.790000000     0.310000000     0.865000000
H    -4.419000000    -0.047000000     1.397000000
O     1.082000000     1.492000000    -2.895000000
H     0.881000000     1.374000000    -1.967000000
H     0.227000000     1.575000000    -3.317000000
O    -0.964000000     4.568000000    -1.435000000
H    -0.728000000     4.041000000    -2.199000000
H    -1.572000000     4.017000000    -0.943000000
O     0.839000000     1.739000000     4.408000000
H     1.752000000     2.027000000     4.430000000
H     0.846000000     0.883000000     4.836000000
O    -4.529000000    -4.207000000    -2.399000000
H    -4.549000000    -3.878000000    -3.298000000
H    -3.667000000    -3.952000000    -2.070000000
O     2.131000000    -3.431000000    -2.582000000
H     2.310000000    -4.037000000    -1.863000000
H     2.328000000    -3.933000000    -3.373000000
O    -4.265000000    -6.724000000    -1.723000000
H    -4.294000000    -5.779000000    -1.872000000
H    -4.879000000    -7.086000000    -2.362000000
O     1.069000000    -1.122000000     5.068000000
H     0.365000000    -1.627000000     5.474000000
H     1.106000000    -1.443000000     4.167000000
O     0.735000000    -1.160000000    -3.737000000
H     1.074000000    -0.392000000    -3.278000000
H     0.929000000    -1.893000000    -3.153000000
O    -1.501000000    -7.136000000    -0.159000000
H    -1.952000000    -7.954000000     0.054000000
H    -1.302000000    -7.209000000    -1.093000000
O     3.449000000     0.833000000    -4.746000000
H     3.751000000     1.667000000    -4.386000000
H     3.502000000     0.221000000    -4.012000000
O    -0.461000000     7.493000000    -2.163000000
H    -0.663000000     6.582000000    -1.951000000
H    -0.123000000     7.461000000    -3.058000000
O     0.639000000    -5.614000000     0.373000000
H     0.341000000    -4.863000000    -0.141000000
H    -0.057000000    -6.264000000     0.272000000
O    -0.602000000     4.470000000     5.798000000
H    -0.498000000     3.573000000     6.117000000
H    -1.205000000     4.393000000     5.060000000
O    -4.273000000     3.473000000     4.641000000
H    -4.876000000     2.751000000     4.818000000
H    -4.079000000     3.399000000     3.707000000
O    -4.597000000    -2.151000000     0.852000000
H    -5.187000000    -2.834000000     0.536000000
H    -3.812000000    -2.243000000     0.311000000
O     4.910000000     4.976000000     3.094000000
H     4.205000000     5.054000000     3.737000000
H     4.459000000     4.840000000     2.260000000
O     3.334000000     2.358000000     5.050000000
H     3.322000000     3.303000000     4.900000000
H     3.603000000     2.264000000     5.964000000
O    -3.587000000     3.700000000    -1.324000000
H    -3.531000000     4.600000000    -1.643000000
H    -3.859000000     3.191000000    -2.088000000
O    -1.471000000    -5.060000000    -3.143000000
H    -1.314000000    -4.578000000    -3.955000000
H    -1.192000000    -4.461000000    -2.451000000
O     4.540000000     0.398000000     3.305000000
H     4.042000000     1.018000000     3.839000000
H     4.729000000     0.876000000     2.498000000
O     5.510000000     1.631000000     0.817000000
H     6.450000000     1.787000000     0.913000000
H     5.452000000     0.871000000     0.238000000
O    -6.333000000     0.574000000    -2.864000000
H    -5.550000000     0.037000000    -2.741000000
H    -7.027000000    -0.055000000    -3.059000000
O     5.174000000    -3.572000000     0.288000000
H     5.971000000    -4.099000000     0.339000000
H     4.485000000    -4.199000000     0.067000000
O     2.946000000    -1.761000000     2.874000000
H     3.027000000    -2.080000000     1.976000000
H     3.340000000    -0.889000000     2.855000000
