161
-3106.10532
C     0.230000000    -0.509000000    -1.398000000
H     0.518000000    -0.971000000    -2.338000000
C     1.104000000     0.341000000    -0.742000000
H     2.079000000     0.645000000    -1.112000000
C     0.798000000     0.802000000     0.568000000
C     1.674000000     1.696000000     1.290000000
H     1.620000000     1.324000000     2.315000000
H     2.669000000     1.741000000     0.842000000
H     1.271000000     2.710000000     1.341000000
C    -0.466000000     0.461000000     1.077000000
H    -0.720000000     0.750000000     2.094000000
C    -1.371000000    -0.309000000     0.387000000
H    -2.359000000    -0.560000000     0.765000000
C    -0.903000000    -1.002000000    -0.711000000
C    -1.808000000    -2.092000000    -1.309000000
O    -3.005000000    -2.180000000    -0.954000000
O    -1.332000000    -2.840000000    -2.118000000
O     1.826000000     4.992000000    -1.707000000
H     1.197000000     4.640000000    -2.337000000
H     2.680000000     4.728000000    -2.050000000
O     3.357000000     1.869000000     4.495000000
H     4.070000000     1.622000000     3.906000000
H     3.633000000     2.706000000     4.868000000
O    -7.157000000    -1.223000000    -1.169000000
H    -6.220000000    -1.025000000    -1.160000000
H    -7.571000000    -0.407000000    -1.449000000
O    -0.017000000    -6.638000000    -4.023000000
H    -0.222000000    -5.874000000    -3.484000000
H    -0.529000000    -6.511000000    -4.822000000
O    -1.727000000    -0.341000000     4.273000000
H    -2.357000000     0.360000000     4.108000000
H    -0.952000000     0.109000000     4.612000000
O     0.750000000     5.565000000     0.697000000
H    -0.030000000     6.119000000     0.660000000
H     0.818000000     5.187000000    -0.180000000
O     3.896000000    -2.454000000    -0.072000000
H     3.118000000    -2.457000000     0.486000000
H     3.961000000    -3.352000000    -0.396000000
O    -2.982000000     1.199000000    -3.170000000
H    -2.622000000     0.379000000    -3.506000000
H    -3.269000000     1.672000000    -3.951000000
O    -4.675000000    -0.142000000    -1.176000000
H    -4.408000000     0.404000000    -1.915000000
H    -4.001000000    -0.819000000    -1.122000000
O    -4.872000000     3.094000000     0.314000000
H    -3.949000000     2.858000000     0.402000000
H    -5.341000000     2.409000000     0.791000000
O     1.407000000    -2.454000000     1.027000000
H     1.176000000    -1.806000000     0.361000000
H     1.027000000    -2.112000000     1.836000000
O     2.570000000    -1.668000000    -4.085000000
H     2.992000000    -1.473000000    -3.248000000
H     2.240000000    -2.560000000    -3.985000000
O     4.039000000    -1.447000000     5.015000000
H     4.993000000    -1.379000000     4.973000000
H     3.731000000    -0.545000000     4.928000000
O    -5.574000000     0.402000000     1.250000000
H    -5.184000000     0.216000000     0.396000000
H    -5.195000000    -0.254000000     1.834000000
O    -3.987000000    -1.074000000    -5.866000000
H    -3.172000000    -1.147000000    -5.368000000
H    -4.567000000    -1.725000000    -5.472000000
O     6.851000000     0.413000000     0.325000000
H     7.463000000     1.060000000    -0.025000000
H     6.226000000     0.927000000     0.837000000
O    -0.032000000    -4.889000000    -1.775000000
H    -0.413000000    -4.040000000    -1.997000000
H    -0.018000000    -4.903000000    -0.818000000
O    -3.063000000    -5.681000000    -0.186000000
H    -2.294000000    -5.454000000     0.337000000
H    -2.988000000    -5.139000000    -0.971000000
O    -6.549000000    -3.049000000     0.755000000
H    -6.961000000    -2.342000000     0.258000000
H    -6.473000000    -3.769000000     0.129000000
O     0.435000000     4.149000000    -3.697000000
H     0.280000000     3.262000000    -3.372000000
H     1.159000000     4.054000000    -4.317000000
O    -0.492000000     3.346000000     4.109000000
H    -1.141000000     3.390000000     3.406000000
H    -0.703000000     4.086000000     4.677000000
O    -2.198000000     2.640000000     0.611000000
H    -1.983000000     1.769000000     0.943000000
H    -1.578000000     2.785000000    -0.103000000
O     5.098000000     5.165000000     0.144000000
H     6.004000000     5.015000000     0.414000000
H     5.074000000     4.894000000    -0.774000000
O     0.613000000     0.065000000    -5.190000000
H     1.215000000    -0.624000000    -4.908000000
H     1.112000000     0.875000000    -5.087000000
O    -3.521000000     1.736000000     3.888000000
H    -3.839000000     2.638000000     3.936000000
H    -4.303000000     1.215000000     3.707000000
O    -4.395000000    -4.166000000    -2.306000000
H    -5.107000000    -4.279000000    -1.677000000
H    -3.873000000    -3.446000000    -1.950000000
O    -0.372000000    -5.402000000     1.060000000
H    -0.157000000    -4.635000000     1.590000000
H    -0.503000000    -6.104000000     1.697000000
O     0.654000000     0.968000000     5.139000000
H     0.377000000     1.863000000     4.941000000
H     1.518000000     0.889000000     4.734000000
O     1.818000000    -3.995000000    -3.383000000
H     2.373000000    -4.765000000    -3.503000000
H     1.075000000    -4.313000000    -2.871000000
O     4.701000000     1.337000000    -3.884000000
H     5.356000000     1.215000000    -4.571000000
H     4.920000000     0.679000000    -3.224000000
O     1.661000000     5.048000000     3.052000000
H     1.445000000     5.201000000     2.132000000
H     1.022000000     4.398000000     3.344000000
O    -1.760000000    -4.253000000    -4.162000000
H    -1.629000000    -3.812000000    -3.323000000
H    -2.391000000    -4.947000000    -3.972000000
O    -3.322000000    -6.439000000    -3.737000000
H    -3.812000000    -5.960000000    -3.068000000
H    -3.456000000    -7.361000000    -3.518000000
O     5.773000000     1.805000000     2.420000000
H     5.180000000     2.506000000     2.151000000
H     6.444000000     2.246000000     2.940000000
O    -4.329000000    -0.950000000     3.270000000
H    -4.849000000    -1.591000000     3.754000000
H    -3.442000000    -1.311000000     3.274000000
O    -3.730000000    -3.096000000     1.661000000
H    -3.414000000    -2.739000000     0.831000000
H    -4.676000000    -3.181000000     1.540000000
O     4.421000000     4.083000000    -2.862000000
H     4.446000000     3.223000000    -3.282000000
H     5.220000000     4.518000000    -3.160000000
O     3.824000000     3.632000000     2.155000000
H     3.778000000     4.077000000     1.308000000
H     3.027000000     3.903000000     2.610000000
O    -1.793000000    -0.943000000    -4.200000000
H    -0.888000000    -0.807000000    -4.481000000
H    -1.725000000    -1.533000000    -3.449000000
O    -2.409000000     4.752000000     2.366000000
H    -2.501000000     4.055000000     1.716000000
H    -3.305000000     4.935000000     2.650000000
O    -5.679000000    -2.458000000    -4.291000000
H    -6.232000000    -3.052000000    -4.799000000
H    -5.119000000    -3.036000000    -3.773000000
O    -0.533000000    -7.958000000    -1.404000000
H    -0.106000000    -8.044000000    -2.256000000
H    -0.717000000    -7.022000000    -1.321000000
O     2.301000000     2.570000000    -4.996000000
H     2.563000000     2.728000000    -5.903000000
H     3.024000000     2.068000000    -4.621000000
O     4.971000000    -0.485000000    -1.619000000
H     5.739000000    -0.159000000    -1.149000000
H     4.528000000    -1.052000000    -0.989000000
O    -1.360000000     1.458000000    -6.229000000
H    -0.532000000     1.118000000    -5.891000000
H    -1.444000000     1.066000000    -7.098000000
O    -0.858000000     2.368000000    -1.719000000
H    -0.718000000     1.457000000    -1.462000000
H    -1.551000000     2.327000000    -2.379000000
O    -0.983000000    -2.725000000     2.572000000
H    -1.787000000    -3.221000000     2.420000000
H    -1.224000000    -2.072000000     3.229000000
O    -0.796000000    -3.578000000    -6.793000000
H    -1.621000000    -3.411000000    -7.249000000
H    -1.059000000    -3.855000000    -5.916000000
