161
-3020.66102
C     0.311000000    -0.373000000    -1.424000000
H     0.610000000    -0.751000000    -2.398000000
C     0.540000000    -1.174000000    -0.285000000
H     1.059000000    -2.126000000    -0.355000000
C     0.093000000    -0.786000000     0.938000000
C     0.238000000    -1.658000000     2.139000000
H    -0.481000000    -2.480000000     2.168000000
H     1.235000000    -2.100000000     2.195000000
H     0.110000000    -1.003000000     3.003000000
C    -0.567000000     0.443000000     1.092000000
H    -0.965000000     0.781000000     2.046000000
C    -0.523000000     1.309000000     0.025000000
H    -0.908000000     2.323000000     0.096000000
C    -0.170000000     0.935000000    -1.226000000
C    -0.252000000     1.908000000    -2.391000000
O    -0.581000000     3.083000000    -2.168000000
O     0.258000000     1.667000000    -3.462000000
O     4.484000000    -1.622000000     2.408000000
H     4.146000000    -2.509000000     2.289000000
H     3.991000000    -1.092000000     1.782000000
O    -0.788000000    -0.320000000    -7.735000000
H    -0.442000000     0.121000000    -6.959000000
H    -1.181000000    -1.124000000    -7.397000000
O     3.317000000    -1.294000000    -5.257000000
H     3.135000000    -1.295000000    -6.196000000
H     4.242000000    -1.055000000    -5.192000000
O     2.987000000     1.812000000    -2.748000000
H     3.097000000     0.906000000    -2.462000000
H     2.050000000     1.895000000    -2.928000000
O     5.259000000    -1.505000000     4.915000000
H     5.097000000    -1.617000000     3.979000000
H     5.969000000    -2.116000000     5.110000000
O    -3.887000000    -4.385000000    -0.280000000
H    -4.833000000    -4.248000000    -0.333000000
H    -3.787000000    -5.331000000    -0.178000000
O     4.659000000    -0.655000000    -1.324000000
H     4.005000000    -0.388000000    -0.679000000
H     4.873000000    -1.558000000    -1.089000000
O     3.641000000     1.587000000    -5.559000000
H     2.923000000     2.178000000    -5.785000000
H     3.844000000     1.794000000    -4.647000000
O     1.167000000     4.671000000    -1.346000000
H     1.079000000     5.330000000    -2.034000000
H     0.617000000     3.944000000    -1.638000000
O    -3.932000000     1.583000000     1.186000000
H    -4.049000000     0.830000000     1.766000000
H    -3.282000000     1.294000000     0.546000000
O    -2.681000000    -1.320000000     4.604000000
H    -2.086000000    -1.534000000     3.884000000
H    -2.619000000    -0.369000000     4.690000000
O     3.629000000    -4.763000000     5.048000000
H     3.693000000    -4.561000000     5.982000000
H     4.055000000    -5.615000000     4.957000000
O     2.833000000    -1.064000000     6.466000000
H     3.493000000    -1.294000000     7.121000000
H     3.123000000    -1.507000000     5.668000000
O    -1.253000000    -5.485000000     0.448000000
H    -1.335000000    -5.456000000     1.401000000
H    -2.032000000    -5.032000000     0.126000000
O    -4.224000000    -5.617000000     3.005000000
H    -3.301000000    -5.403000000     3.141000000
H    -4.210000000    -6.476000000     2.583000000
O     0.831000000    -7.044000000     0.039000000
H     0.260000000    -6.277000000     0.074000000
H     0.339000000    -7.686000000    -0.473000000
O     4.716000000     3.837000000    -1.756000000
H     5.111000000     4.380000000    -2.439000000
H     4.019000000     3.358000000    -2.205000000
O    -2.399000000     1.082000000    -4.678000000
H    -3.026000000     0.472000000    -4.289000000
H    -1.701000000     1.157000000    -4.026000000
O     1.444000000     3.586000000    -5.073000000
H     1.577000000     4.417000000    -4.615000000
H     1.011000000     3.025000000    -4.429000000
O     3.181000000     5.410000000     0.409000000
H     2.554000000     4.847000000    -0.046000000
H     2.733000000     6.252000000     0.488000000
O     1.346000000     6.331000000    -3.624000000
H     1.222000000     6.666000000    -4.512000000
H     1.624000000     7.094000000    -3.117000000
O    -3.227000000    -0.612000000    -0.352000000
H    -4.061000000    -0.872000000     0.041000000
H    -2.619000000    -1.308000000    -0.106000000
O    -2.160000000     4.835000000    -0.458000000
H    -1.573000000     5.591000000    -0.434000000
H    -1.866000000     4.328000000    -1.215000000
O    -1.437000000     7.185000000    -2.567000000
H    -0.824000000     6.514000000    -2.867000000
H    -1.704000000     7.639000000    -3.366000000
O     2.757000000     2.780000000     2.946000000
H     2.590000000     3.531000000     3.516000000
H     3.199000000     3.153000000     2.182000000
O    -3.236000000    -0.840000000    -3.093000000
H    -3.431000000    -0.856000000    -2.156000000
H    -3.131000000    -1.761000000    -3.331000000
O     0.651000000    -4.678000000     4.291000000
H     0.536000000    -3.871000000     4.793000000
H     1.563000000    -4.926000000     4.441000000
O    -0.544000000     6.858000000     0.657000000
H    -0.136000000     6.553000000     1.467000000
H     0.187000000     7.168000000     0.122000000
O     0.140000000    -3.161000000     6.818000000
H    -0.547000000    -3.546000000     7.362000000
H    -0.104000000    -2.238000000     6.743000000
O     5.628000000    -0.769000000    -3.874000000
H     5.139000000    -0.594000000    -3.070000000
H     5.870000000    -1.693000000    -3.811000000
O    -0.554000000     4.300000000     4.538000000
H    -0.892000000     4.520000000     3.670000000
H     0.122000000     4.957000000     4.705000000
O     0.139000000    -0.267000000     6.276000000
H     0.218000000     0.617000000     5.918000000
H     1.027000000    -0.622000000     6.237000000
O    -0.848000000     2.720000000    -6.447000000
H    -1.194000000     1.967000000    -5.968000000
H    -0.098000000     3.010000000    -5.928000000
O    -2.593000000     1.420000000     4.550000000
H    -1.826000000     1.900000000     4.862000000
H    -3.297000000     2.068000000     4.548000000
O    -1.609000000    -5.621000000     3.287000000
H    -0.746000000    -5.265000000     3.495000000
H    -1.771000000    -6.271000000     3.972000000
O     4.264000000    -4.620000000     2.143000000
H     3.974000000    -4.739000000     3.048000000
H     4.330000000    -5.509000000     1.794000000
O    -3.664000000     5.969000000    -4.371000000
H    -2.889000000     6.107000000    -4.916000000
H    -3.543000000     5.096000000    -3.999000000
O     4.319000000    -5.456000000    -0.885000000
H     3.855000000    -4.898000000    -0.261000000
H     3.737000000    -5.502000000    -1.644000000
O    -2.751000000     3.562000000    -3.605000000
H    -2.832000000     2.818000000    -4.201000000
H    -1.988000000     3.355000000    -3.066000000
O     0.720000000     1.950000000     4.540000000
H     1.419000000     1.859000000     3.892000000
H     0.427000000     2.857000000     4.451000000
O    -5.244000000     4.261000000     1.746000000
H    -5.453000000     4.651000000     0.897000000
H    -4.793000000     3.445000000     1.530000000
O    -1.682000000     5.474000000    -6.136000000
H    -1.216000000     4.639000000    -6.088000000
H    -1.167000000     6.002000000    -6.745000000
O    -5.690000000     3.272000000    -2.794000000
H    -5.908000000     2.662000000    -2.090000000
H    -4.758000000     3.128000000    -2.956000000
O    -4.559000000    -1.155000000     2.172000000
H    -4.729000000    -2.083000000     2.015000000
H    -4.410000000    -1.096000000     3.116000000
O     1.116000000     0.194000000    -5.572000000
H     0.831000000     0.737000000    -4.837000000
H     1.895000000    -0.258000000    -5.248000000
O    -3.709000000    -0.334000000    -6.678000000
H    -3.131000000    -1.048000000    -6.946000000
H    -3.198000000     0.159000000    -6.035000000
O    -1.892000000     4.380000000     2.221000000
H    -2.595000000     3.732000000     2.271000000
H    -1.894000000     4.665000000     1.307000000
O     3.291000000     0.364000000     0.912000000
H     2.427000000     0.590000000     1.256000000
H     3.790000000     1.180000000     0.963000000
