161
-3024.17267
C    -0.059000000     1.363000000    -0.659000000
H     0.051000000     2.297000000    -1.205000000
C     1.128000000     0.786000000    -0.125000000
H     2.088000000     1.297000000    -0.133000000
C     0.976000000    -0.446000000     0.523000000
C     2.152000000    -1.085000000     1.174000000
H     2.054000000    -2.172000000     1.233000000
H     2.958000000    -0.799000000     0.496000000
H     2.266000000    -0.665000000     2.176000000
C    -0.214000000    -1.126000000     0.614000000
H    -0.145000000    -2.070000000     1.148000000
C    -1.363000000    -0.637000000     0.009000000
H    -2.219000000    -1.304000000    -0.053000000
C    -1.285000000     0.605000000    -0.651000000
C    -2.447000000     1.195000000    -1.343000000
O    -3.526000000     0.593000000    -1.294000000
O    -2.418000000     2.176000000    -1.907000000
O     1.331000000     5.965000000     1.323000000
H     0.424000000     5.662000000     1.298000000
H     1.796000000     5.380000000     0.724000000
O     0.539000000    -0.671000000    -2.741000000
H     1.279000000    -0.615000000    -3.345000000
H     0.752000000    -0.053000000    -2.042000000
O    -2.586000000    -3.945000000     3.383000000
H    -1.849000000    -3.793000000     3.975000000
H    -2.723000000    -3.102000000     2.951000000
O    -3.998000000    -5.116000000     1.401000000
H    -4.785000000    -4.735000000     1.791000000
H    -3.274000000    -4.677000000     1.846000000
O     3.863000000    -5.991000000     3.560000000
H     4.025000000    -5.459000000     4.338000000
H     3.205000000    -5.500000000     3.067000000
O    -1.516000000    -3.716000000    -4.308000000
H    -0.988000000    -4.024000000    -3.571000000
H    -1.744000000    -2.815000000    -4.079000000
O    -5.236000000     0.475000000     2.066000000
H    -5.044000000     0.761000000     1.173000000
H    -5.936000000     1.060000000     2.359000000
O     2.833000000    -2.816000000    -2.525000000
H     1.923000000    -3.104000000    -2.457000000
H     3.235000000    -3.434000000    -3.135000000
O     7.792000000    -1.888000000    -0.442000000
H     6.846000000    -2.005000000    -0.529000000
H     7.901000000    -0.962000000    -0.225000000
O    -4.617000000     3.279000000    -3.167000000
H    -3.934000000     2.822000000    -2.677000000
H    -5.434000000     3.006000000    -2.749000000
O     5.563000000    -1.932000000     2.430000000
H     5.089000000    -2.137000000     1.624000000
H     4.953000000    -2.160000000     3.131000000
O     1.368000000     6.770000000    -1.590000000
H     0.530000000     6.418000000    -1.291000000
H     1.802000000     6.029000000    -2.013000000
O    -3.432000000     0.240000000     3.891000000
H    -3.711000000     0.164000000     4.804000000
H    -4.239000000     0.421000000     3.408000000
O     0.185000000    -3.382000000    -2.337000000
H     0.292000000    -2.465000000    -2.589000000
H    -0.606000000    -3.392000000    -1.798000000
O     0.570000000     0.687000000     5.669000000
H     1.375000000     0.768000000     5.159000000
H    -0.006000000     0.150000000     5.124000000
O    -6.553000000     2.245000000    -1.494000000
H    -6.906000000     1.681000000    -2.182000000
H    -7.233000000     2.253000000    -0.819000000
O     0.344000000    -4.731000000     0.247000000
H    -0.575000000    -4.512000000     0.093000000
H     0.713000000    -4.844000000    -0.629000000
O     5.150000000    -2.111000000    -0.623000000
H     5.072000000    -3.042000000    -0.831000000
H     4.443000000    -1.695000000    -1.115000000
O    -4.863000000    -2.438000000     2.302000000
H    -4.723000000    -1.638000000     2.807000000
H    -4.973000000    -2.136000000     1.400000000
O     3.664000000    -2.797000000     4.374000000
H     2.925000000    -3.341000000     4.648000000
H     4.197000000    -2.703000000     5.163000000
O     3.123000000     3.878000000    -0.163000000
H     3.366000000     3.230000000    -0.825000000
H     2.814000000     3.358000000     0.579000000
O     4.536000000     5.783000000     1.176000000
H     4.175000000     5.239000000     0.476000000
H     4.649000000     6.645000000     0.774000000
O     2.226000000     1.946000000    -4.030000000
H     2.637000000     1.404000000    -3.357000000
H     2.946000000     2.191000000    -4.613000000
O    -5.265000000     4.145000000    -5.663000000
H    -4.997000000     3.950000000    -4.766000000
H    -6.018000000     4.729000000    -5.567000000
O    -1.603000000    -1.582000000     5.101000000
H    -2.015000000    -0.774000000     4.795000000
H    -2.240000000    -1.961000000     5.706000000
O     3.001000000    -0.127000000     4.697000000
H     3.794000000     0.333000000     4.420000000
H     3.160000000    -1.041000000     4.462000000
O     0.113000000     2.150000000    -5.607000000
H     0.585000000     2.113000000    -4.775000000
H     0.695000000     2.636000000    -6.191000000
O     3.283000000    -0.333000000    -2.712000000
H     3.876000000    -0.342000000    -3.464000000
H     3.006000000    -1.244000000    -2.615000000
O    -4.494000000     3.247000000     0.647000000
H    -5.266000000     3.135000000     0.093000000
H    -3.815000000     2.725000000     0.219000000
O     2.851000000    -5.442000000    -0.974000000
H     2.696000000    -6.097000000    -0.293000000
H     3.420000000    -4.795000000    -0.557000000
O     3.695000000     2.346000000     2.050000000
H     4.130000000     1.713000000     1.478000000
H     4.096000000     2.208000000     2.908000000
O    -4.990000000    -0.270000000    -3.414000000
H    -4.574000000     0.286000000    -2.755000000
H    -4.402000000    -1.021000000    -3.500000000
O     4.113000000     2.004000000    -1.658000000
H     4.886000000     2.282000000    -2.151000000
H     3.917000000     1.129000000    -1.992000000
O     7.530000000     0.739000000    -0.804000000
H     7.038000000     1.300000000    -1.403000000
H     6.946000000     0.616000000    -0.056000000
O    -2.410000000    -3.944000000    -0.583000000
H    -2.823000000    -4.498000000     0.079000000
H    -3.142000000    -3.564000000    -1.068000000
O    -4.868000000    -1.704000000    -0.526000000
H    -4.470000000    -0.908000000    -0.877000000
H    -5.668000000    -1.818000000    -1.039000000
O    -1.165000000     4.090000000     1.588000000
H    -0.378000000     3.559000000     1.702000000
H    -1.512000000     4.199000000     2.473000000
O     5.888000000     0.660000000     1.182000000
H     6.100000000     1.017000000     2.044000000
H     5.744000000    -0.274000000     1.339000000
O    -2.231000000     1.415000000    -4.779000000
H    -1.617000000     1.941000000    -5.292000000
H    -2.122000000     1.727000000    -3.881000000
O     0.724000000     2.384000000     2.321000000
H     0.684000000     1.759000000     1.598000000
H     1.599000000     2.269000000     2.691000000
O    -5.540000000     5.720000000    -2.350000000
H    -5.427000000     4.776000000    -2.463000000
H    -5.018000000     6.109000000    -3.052000000
O    -0.939000000     5.636000000    -0.656000000
H    -1.163000000     4.977000000     0.001000000
H    -1.189000000     5.237000000    -1.489000000
O     0.647000000    -3.404000000     4.612000000
H     0.236000000    -2.561000000     4.419000000
H     0.788000000    -3.391000000     5.558000000
O    -5.621000000     1.323000000    -5.677000000
H    -5.376000000     2.248000000    -5.710000000
H    -5.150000000     0.977000000    -4.919000000
O     1.840000000    -4.809000000     2.595000000
H     1.347000000    -4.447000000     3.332000000
H     1.282000000    -4.652000000     1.833000000
O     1.467000000     4.294000000    -3.030000000
H     0.512000000     4.259000000    -2.967000000
H     1.724000000     3.400000000    -3.254000000
O    -1.250000000     4.244000000    -2.882000000
H    -1.636000000     4.456000000    -3.731000000
H    -1.779000000     3.518000000    -2.553000000
O    -1.998000000    -1.162000000    -3.580000000
H    -2.124000000    -0.387000000    -4.127000000
H    -1.090000000    -1.100000000    -3.282000000
