161
-3043.31482
C    -0.507000000    -0.175000000    -1.443000000
H    -0.875000000    -0.401000000    -2.440000000
C     0.640000000    -0.762000000    -0.913000000
H     1.301000000    -1.387000000    -1.508000000
C     1.025000000    -0.497000000     0.385000000
C     2.286000000    -1.066000000     0.947000000
H     3.129000000    -0.584000000     0.447000000
H     2.317000000    -0.710000000     1.979000000
H     2.291000000    -2.157000000     0.894000000
C     0.328000000     0.288000000     1.239000000
H     0.547000000     0.394000000     2.298000000
C    -0.841000000     0.795000000     0.752000000
H    -1.463000000     1.354000000     1.446000000
C    -1.303000000     0.597000000    -0.565000000
C    -2.630000000     1.221000000    -1.018000000
O    -3.312000000     1.919000000    -0.297000000
O    -2.925000000     1.165000000    -2.200000000
O     3.104000000     2.921000000     1.766000000
H     3.280000000     3.237000000     2.652000000
H     3.891000000     2.433000000     1.525000000
O    -6.725000000    -1.904000000    -0.495000000
H    -6.056000000    -1.247000000    -0.688000000
H    -7.526000000    -1.552000000    -0.881000000
O     1.439000000    -0.865000000    -5.242000000
H     0.524000000    -0.605000000    -5.347000000
H     1.913000000    -0.339000000    -5.886000000
O     7.122000000    -0.989000000     0.739000000
H     6.873000000    -0.995000000    -0.185000000
H     8.049000000    -1.227000000     0.739000000
O    -2.107000000     4.120000000     0.831000000
H    -2.541000000     3.315000000     0.548000000
H    -1.706000000     3.894000000     1.670000000
O    -3.708000000     3.216000000     4.226000000
H    -3.615000000     3.545000000     5.120000000
H    -3.329000000     2.337000000     4.255000000
O    -5.584000000     2.163000000    -1.808000000
H    -4.751000000     1.823000000    -1.480000000
H    -5.993000000     1.416000000    -2.245000000
O    -3.589000000    -2.891000000    -5.412000000
H    -3.893000000    -3.302000000    -4.602000000
H    -3.350000000    -2.001000000    -5.153000000
O     5.601000000     2.211000000     0.889000000
H     5.664000000     1.393000000     0.395000000
H     6.128000000     2.834000000     0.388000000
O     0.708000000    -5.595000000    -4.572000000
H     0.864000000    -5.209000000    -3.709000000
H    -0.165000000    -5.289000000    -4.816000000
O     5.288000000    -0.512000000     2.781000000
H     5.859000000    -0.414000000     2.019000000
H     5.067000000    -1.443000000     2.796000000
O    -0.610000000     1.194000000     4.409000000
H    -1.495000000     0.847000000     4.525000000
H    -0.035000000     0.464000000     4.640000000
O     3.199000000    -2.654000000    -3.965000000
H     3.311000000    -3.147000000    -4.778000000
H     2.565000000    -1.972000000    -4.185000000
O    -5.129000000     0.873000000     1.198000000
H    -5.381000000     1.539000000     1.837000000
H    -4.442000000     1.289000000     0.677000000
O    -6.341000000     4.471000000    -3.082000000
H    -6.407000000     3.932000000    -2.294000000
H    -5.453000000     4.317000000    -3.405000000
O     0.813000000    -4.406000000    -1.874000000
H     1.611000000    -3.905000000    -2.046000000
H     0.981000000    -4.848000000    -1.042000000
O    -3.207000000     0.379000000     4.384000000
H    -3.435000000    -0.372000000     3.836000000
H    -3.550000000     0.157000000     5.249000000
O     4.953000000    -0.916000000     6.853000000
H     4.927000000    -0.098000000     7.348000000
H     4.364000000    -0.768000000     6.113000000
O    -1.682000000    -2.383000000     2.396000000
H    -2.483000000    -2.126000000     2.852000000
H    -1.002000000    -1.823000000     2.771000000
O    -1.062000000    -0.035000000    -5.181000000
H    -1.910000000    -0.141000000    -4.750000000
H    -0.878000000     0.903000000    -5.121000000
O     2.331000000     1.275000000    -2.731000000
H     2.380000000     0.608000000    -3.416000000
H     1.834000000     0.859000000    -2.027000000
O    -5.151000000     3.504000000     2.039000000
H    -4.482000000     3.933000000     1.504000000
H    -4.827000000     3.583000000     2.936000000
O     5.294000000    -3.215000000     2.891000000
H     5.561000000    -3.722000000     3.658000000
H     5.654000000    -3.700000000     2.148000000
O     2.636000000     2.981000000     5.085000000
H     1.917000000     3.100000000     5.706000000
H     2.757000000     3.844000000     4.691000000
O     1.558000000     3.494000000    -0.355000000
H     0.877000000     2.825000000    -0.288000000
H     2.149000000     3.309000000     0.375000000
O     5.013000000     0.882000000    -1.856000000
H     4.146000000     1.187000000    -2.123000000
H     5.019000000    -0.048000000    -2.080000000
O    -3.404000000     3.412000000    -3.459000000
H    -3.306000000     2.741000000    -2.783000000
H    -2.802000000     3.142000000    -4.152000000
O     4.334000000    -1.981000000    -1.564000000
H     4.200000000    -2.319000000    -2.449000000
H     4.458000000    -2.762000000    -1.025000000
O    -2.005000000    -2.711000000    -0.281000000
H    -2.303000000    -2.581000000     0.620000000
H    -1.070000000    -2.509000000    -0.255000000
O     3.551000000    -0.098000000     4.680000000
H     4.348000000    -0.259000000     4.175000000
H     3.420000000     0.848000000     4.628000000
O     0.742000000     4.039000000    -3.698000000
H     1.391000000     3.346000000    -3.572000000
H     0.275000000     4.083000000    -2.864000000
O    -1.263000000     2.959000000    -5.242000000
H    -1.665000000     3.653000000    -5.764000000
H    -0.564000000     3.399000000    -4.757000000
O    -6.635000000    -1.403000000     2.544000000
H    -7.241000000    -0.666000000     2.622000000
H    -6.073000000    -1.173000000     1.805000000
O    -7.163000000     3.170000000     0.111000000
H    -6.673000000     2.580000000    -0.463000000
H    -6.585000000     3.309000000     0.861000000
O    -0.744000000     6.025000000     2.748000000
H    -0.684000000     6.267000000     1.824000000
H    -0.390000000     5.136000000     2.786000000
O    -3.624000000    -0.447000000    -4.102000000
H    -3.381000000     0.089000000    -3.347000000
H    -4.576000000    -0.366000000    -4.157000000
O     6.860000000     2.312000000     3.394000000
H     7.151000000     3.167000000     3.075000000
H     6.390000000     1.927000000     2.655000000
O    -2.008000000    -5.168000000    -2.386000000
H    -1.827000000    -4.497000000    -3.044000000
H    -1.658000000    -4.805000000    -1.572000000
O    -0.651000000    -4.967000000     2.562000000
H    -0.177000000    -4.456000000     3.219000000
H    -1.358000000    -4.389000000     2.274000000
O     0.143000000     3.298000000     2.695000000
H     1.058000000     3.257000000     2.419000000
H     0.069000000     2.635000000     3.381000000
O    -3.602000000    -2.872000000    -2.526000000
H    -2.969000000    -2.930000000    -1.810000000
H    -3.372000000    -2.064000000    -2.984000000
O    -4.297000000     5.806000000     0.298000000
H    -3.809000000     6.573000000     0.598000000
H    -3.623000000     5.191000000     0.007000000
O    -0.161000000     3.101000000     6.196000000
H    -0.603000000     2.805000000     6.992000000
H    -0.315000000     2.401000000     5.562000000
O     1.070000000    -0.690000000     5.191000000
H     0.938000000    -1.637000000     5.162000000
H     1.948000000    -0.559000000     4.831000000
O     3.501000000    -4.804000000    -0.676000000
H     4.321000000    -5.233000000    -0.920000000
H     3.320000000    -5.120000000     0.209000000
O    -4.896000000     2.958000000    -6.405000000
H    -4.331000000     2.204000000    -6.238000000
H    -4.790000000     3.135000000    -7.339000000
O    -1.197000000     4.700000000    -1.778000000
H    -1.959000000     4.371000000    -2.255000000
H    -1.297000000     4.346000000    -0.894000000
O    -6.588000000    -0.060000000    -3.048000000
H    -7.306000000     0.547000000    -2.868000000
H    -6.952000000    -0.683000000    -3.676000000
