161
-3036.42133
C     0.727000000     0.220000000    -1.263000000
H     1.281000000     0.143000000    -2.195000000
C     1.120000000    -0.622000000    -0.254000000
H     2.083000000    -1.125000000    -0.293000000
C     0.384000000    -0.748000000     0.902000000
C     0.708000000    -1.842000000     1.957000000
H    -0.183000000    -2.410000000     2.230000000
H     1.450000000    -2.527000000     1.540000000
H     1.081000000    -1.390000000     2.879000000
C    -0.782000000     0.029000000     1.040000000
H    -1.412000000     0.001000000     1.925000000
C    -1.078000000     0.970000000     0.079000000
H    -1.988000000     1.539000000     0.253000000
C    -0.407000000     1.068000000    -1.120000000
C    -0.871000000     1.993000000    -2.250000000
O    -1.785000000     2.803000000    -2.106000000
O    -0.326000000     1.890000000    -3.318000000
O     3.920000000    -1.214000000     2.439000000
H     4.557000000    -0.906000000     1.794000000
H     3.533000000    -0.414000000     2.794000000
O     1.968000000     3.153000000    -7.788000000
H     1.447000000     3.231000000    -6.989000000
H     2.312000000     2.260000000    -7.764000000
O     2.980000000     0.738000000    -4.327000000
H     3.744000000     0.300000000    -4.704000000
H     2.230000000     0.278000000    -4.705000000
O     3.656000000     1.946000000    -2.019000000
H     4.279000000     1.296000000    -1.695000000
H     3.686000000     1.852000000    -2.972000000
O    -3.942000000     4.588000000    -6.010000000
H    -3.239000000     3.987000000    -5.765000000
H    -4.698000000     4.293000000    -5.501000000
O    -1.545000000     7.922000000    -0.921000000
H    -0.923000000     8.170000000    -1.605000000
H    -1.558000000     6.965000000    -0.945000000
O    -2.022000000    -1.190000000    -2.119000000
H    -1.151000000    -0.946000000    -1.806000000
H    -2.059000000    -2.140000000    -2.011000000
O     5.671000000     0.030000000    -1.692000000
H     5.456000000    -0.742000000    -2.215000000
H     5.787000000    -0.307000000    -0.803000000
O    -2.014000000     5.480000000    -2.938000000
H    -1.196000000     5.693000000    -3.388000000
H    -1.902000000     4.572000000    -2.655000000
O    -6.610000000    -0.119000000     1.177000000
H    -5.895000000    -0.616000000     0.781000000
H    -7.127000000    -0.774000000     1.645000000
O    -1.354000000     4.157000000     0.274000000
H    -0.415000000     4.345000000     0.290000000
H    -1.503000000     3.748000000    -0.578000000
O    -2.375000000    -1.151000000     4.878000000
H    -3.108000000    -0.539000000     4.806000000
H    -1.626000000    -0.670000000     4.525000000
O     0.465000000    -5.185000000    -0.030000000
H    -0.139000000    -4.462000000     0.141000000
H     0.066000000    -5.939000000     0.405000000
O    -2.936000000    -5.180000000     4.227000000
H    -3.211000000    -4.489000000     3.624000000
H    -1.981000000    -5.182000000     4.170000000
O     3.842000000    -2.011000000     6.621000000
H     3.375000000    -1.563000000     7.327000000
H     4.149000000    -1.306000000     6.052000000
O     2.865000000    -6.251000000    -1.216000000
H     3.568000000    -5.739000000    -0.816000000
H     2.063000000    -5.908000000    -0.822000000
O    -4.058000000     7.232000000    -3.575000000
H    -3.280000000     6.887000000    -3.136000000
H    -4.488000000     6.460000000    -3.941000000
O    -2.026000000     2.841000000    -5.264000000
H    -2.067000000     2.033000000    -5.777000000
H    -1.842000000     2.548000000    -4.371000000
O     3.967000000     4.675000000    -4.197000000
H     3.030000000     4.484000000    -4.182000000
H     4.247000000     4.435000000    -5.080000000
O    -4.636000000    -0.900000000    -0.763000000
H    -4.233000000    -0.125000000    -1.154000000
H    -3.900000000    -1.401000000    -0.412000000
O     1.307000000     4.454000000     1.288000000
H     1.547000000     3.614000000     0.897000000
H     1.807000000     4.489000000     2.104000000
O    -4.588000000     4.766000000    -1.823000000
H    -4.442000000     5.034000000    -0.915000000
H    -3.709000000     4.693000000    -2.195000000
O     2.409000000    -2.619000000    -4.058000000
H     2.017000000    -3.383000000    -3.633000000
H     1.668000000    -2.044000000    -4.247000000
O     3.611000000     2.611000000     2.879000000
H     2.894000000     2.556000000     3.510000000
H     3.184000000     2.545000000     2.025000000
O    -3.713000000    -0.423000000    -4.502000000
H    -3.521000000    -0.341000000    -3.568000000
H    -4.392000000    -1.097000000    -4.549000000
O     4.021000000    -3.862000000     2.556000000
H     4.019000000    -2.918000000     2.396000000
H     3.494000000    -3.971000000     3.347000000
O    -4.323000000     1.715000000    -1.916000000
H    -4.725000000     2.583000000    -1.891000000
H    -3.394000000     1.885000000    -2.070000000
O     1.490000000    -1.750000000     7.981000000
H     0.593000000    -1.419000000     7.946000000
H     1.554000000    -2.350000000     7.238000000
O     3.874000000     0.335000000     5.381000000
H     4.203000000     0.698000000     6.203000000
H     3.491000000     1.085000000     4.924000000
O    -1.513000000     1.345000000    -7.639000000
H    -0.669000000     1.049000000    -7.298000000
H    -1.309000000     2.149000000    -8.118000000
O    -0.025000000    -6.841000000     3.020000000
H     0.814000000    -6.867000000     2.561000000
H    -0.105000000    -5.937000000     3.324000000
O     4.834000000    -4.381000000    -0.153000000
H     4.671000000    -4.100000000     0.747000000
H     5.662000000    -4.859000000    -0.109000000
O    -0.275000000    -4.499000000     4.362000000
H     0.645000000    -4.244000000     4.290000000
H    -0.498000000    -4.334000000     5.278000000
O     4.742000000    -2.433000000    -2.360000000
H     4.654000000    -3.232000000    -1.839000000
H     3.845000000    -2.206000000    -2.603000000
O     1.155000000     3.231000000    -4.907000000
H     1.967000000     2.742000000    -4.776000000
H     0.493000000     2.729000000    -4.432000000
O     1.514000000     2.144000000     4.624000000
H     1.477000000     2.276000000     5.571000000
H     0.608000000     1.966000000     4.371000000
O    -4.238000000     1.616000000     2.121000000
H    -4.477000000     1.564000000     3.047000000
H    -5.017000000     1.311000000     1.656000000
O     0.876000000     5.464000000    -3.332000000
H     0.942000000     4.753000000    -3.970000000
H     1.265000000     5.106000000    -2.534000000
O     2.180000000     4.044000000    -1.534000000
H     2.310000000     4.019000000    -0.586000000
H     2.988000000     3.681000000    -1.896000000
O     6.057000000    -0.865000000     0.756000000
H     6.436000000    -0.201000000     1.332000000
H     6.631000000    -1.624000000     0.855000000
O    -5.906000000     4.078000000    -4.016000000
H    -5.365000000     4.456000000    -3.323000000
H    -6.806000000     4.234000000    -3.730000000
O    -2.397000000    -4.991000000     1.261000000
H    -2.846000000    -4.956000000     0.416000000
H    -2.756000000    -4.255000000     1.755000000
O    -4.396000000    -3.322000000     2.462000000
H    -5.147000000    -3.561000000     1.918000000
H    -4.720000000    -2.614000000     3.019000000
O     2.261000000    -3.778000000     4.921000000
H     2.792000000    -3.027000000     5.185000000
H     2.060000000    -4.230000000     5.741000000
O     0.493000000    -0.418000000    -5.028000000
H     0.054000000     0.291000000    -4.558000000
H     0.740000000    -0.031000000    -5.869000000
O    -3.836000000     4.739000000     0.997000000
H    -2.955000000     4.572000000     0.662000000
H    -3.883000000     4.235000000     1.809000000
O    -1.063000000     1.450000000     4.241000000
H    -1.409000000     1.657000000     3.373000000
H    -1.458000000     2.104000000     4.819000000
O     2.269000000     2.089000000     0.379000000
H     1.552000000     1.457000000     0.326000000
H     2.716000000     2.016000000    -0.464000000
