161
-3022.01542
C    -0.712000000    -0.985000000    -0.758000000
H    -1.157000000    -1.857000000    -1.230000000
C     0.497000000    -1.228000000    -0.093000000
H     1.039000000    -2.169000000    -0.052000000
C     1.057000000    -0.186000000     0.563000000
C     2.297000000    -0.402000000     1.319000000
H     2.185000000    -1.041000000     2.197000000
H     3.033000000    -0.916000000     0.697000000
H     2.737000000     0.552000000     1.617000000
C     0.429000000     1.103000000     0.549000000
H     0.813000000     1.892000000     1.191000000
C    -0.771000000     1.390000000    -0.162000000
H    -1.265000000     2.314000000     0.127000000
C    -1.284000000     0.299000000    -0.836000000
C    -2.585000000     0.391000000    -1.517000000
O    -3.083000000     1.421000000    -1.869000000
O    -3.227000000    -0.580000000    -1.751000000
O    -0.142000000     4.875000000     1.195000000
H    -0.664000000     4.806000000     1.994000000
H     0.755000000     4.693000000     1.477000000
O     3.315000000    -4.663000000    -2.609000000
H     3.770000000    -4.443000000    -3.422000000
H     2.957000000    -3.830000000    -2.301000000
O     5.802000000     0.808000000     5.868000000
H     5.587000000    -0.115000000     6.002000000
H     5.866000000     0.903000000     4.917000000
O    -5.246000000     4.453000000    -3.691000000
H    -5.725000000     4.532000000    -2.866000000
H    -5.559000000     3.633000000    -4.072000000
O    -0.464000000    -4.799000000     3.451000000
H    -1.058000000    -5.228000000     4.067000000
H    -0.868000000    -4.933000000     2.594000000
O     2.977000000     1.946000000    -1.579000000
H     3.083000000     2.897000000    -1.565000000
H     2.497000000     1.747000000    -0.775000000
O    -1.976000000     3.716000000    -2.617000000
H    -2.325000000     2.879000000    -2.311000000
H    -2.169000000     4.329000000    -1.908000000
O    -3.175000000     5.297000000    -0.386000000
H    -2.697000000     5.541000000     0.407000000
H    -3.791000000     6.016000000    -0.525000000
O    -5.212000000    -2.290000000    -2.246000000
H    -4.426000000    -1.795000000    -2.014000000
H    -5.936000000    -1.701000000    -2.032000000
O    -2.243000000     3.985000000    -5.305000000
H    -2.374000000     3.894000000    -4.361000000
H    -2.000000000     4.903000000    -5.425000000
O     5.062000000    -1.853000000    -0.630000000
H     5.275000000    -2.732000000    -0.317000000
H     4.112000000    -1.864000000    -0.746000000
O     0.121000000     4.037000000     3.927000000
H     0.809000000     3.896000000     3.277000000
H     0.405000000     3.532000000     4.690000000
O     4.836000000     0.976000000    -3.875000000
H     4.179000000     1.197000000    -3.214000000
H     5.332000000     0.255000000    -3.488000000
O    -1.762000000    -1.579000000    -4.657000000
H    -2.418000000    -2.013000000    -4.112000000
H    -2.209000000    -0.805000000    -4.999000000
O    -3.923000000     0.342000000     2.390000000
H    -3.055000000     0.140000000     2.739000000
H    -3.767000000     1.033000000     1.746000000
O     2.644000000    -2.091000000    -1.984000000
H     2.497000000    -1.650000000    -2.820000000
H     2.352000000    -1.461000000    -1.326000000
O     0.187000000    -1.997000000     3.933000000
H    -0.136000000    -2.889000000     3.808000000
H    -0.448000000    -1.592000000     4.524000000
O     7.501000000     0.866000000     1.403000000
H     8.213000000     0.284000000     1.136000000
H     6.874000000     0.823000000     0.681000000
O    -6.310000000     3.802000000     1.821000000
H    -5.620000000     3.306000000     1.381000000
H    -5.913000000     4.087000000     2.644000000
O     5.143000000     1.034000000     3.172000000
H     4.864000000     1.865000000     2.787000000
H     5.815000000     0.707000000     2.575000000
O    -3.230000000    -5.016000000    -4.077000000
H    -3.468000000    -5.300000000    -3.194000000
H    -3.879000000    -4.348000000    -4.297000000
O    -6.493000000     0.803000000     1.208000000
H    -6.217000000     1.186000000     0.375000000
H    -5.797000000     0.184000000     1.429000000
O     4.789000000     3.753000000     1.486000000
H     5.435000000     3.891000000     0.794000000
H     5.299000000     3.761000000     2.296000000
O    -1.935000000     0.916000000     4.806000000
H    -1.035000000     0.866000000     5.129000000
H    -2.045000000     1.830000000     4.545000000
O    -5.694000000    -0.235000000    -5.373000000
H    -6.366000000     0.204000000    -5.894000000
H    -5.108000000     0.469000000    -5.096000000
O    -2.671000000     3.326000000     3.894000000
H    -3.414000000     3.918000000     4.013000000
H    -1.938000000     3.902000000     3.677000000
O    -7.374000000     2.447000000    -3.896000000
H    -6.906000000     1.753000000    -3.433000000
H    -8.146000000     2.618000000    -3.356000000
O     0.674000000     0.701000000     5.112000000
H     1.475000000     1.214000000     4.998000000
H     0.718000000     0.036000000     4.425000000
O    -2.374000000    -2.034000000     1.957000000
H    -1.817000000    -1.567000000     1.334000000
H    -1.948000000    -2.884000000     2.068000000
O    -4.127000000     1.893000000    -4.596000000
H    -3.703000000     1.713000000    -3.757000000
H    -3.429000000     2.252000000    -5.145000000
O    -4.905000000    -3.163000000    -5.232000000
H    -5.801000000    -3.402000000    -4.995000000
H    -4.897000000    -2.207000000    -5.205000000
O    -4.282000000     2.769000000     0.113000000
H    -4.138000000     3.707000000    -0.014000000
H    -3.847000000     2.357000000    -0.634000000
O     0.779000000    -1.263000000    -4.069000000
H     1.153000000    -1.946000000    -4.626000000
H    -0.167000000    -1.349000000    -4.185000000
O    -6.533000000    -4.571000000    -0.960000000
H    -5.841000000    -5.199000000    -1.163000000
H    -6.427000000    -3.878000000    -1.611000000
O    -8.026000000    -1.050000000    -1.551000000
H    -8.480000000    -1.335000000    -2.345000000
H    -7.338000000    -0.464000000    -1.866000000
O     5.319000000    -4.687000000    -0.281000000
H     6.021000000    -4.866000000    -0.906000000
H     4.590000000    -5.233000000    -0.575000000
O     3.041000000     2.202000000     4.911000000
H     3.873000000     1.777000000     4.701000000
H     3.243000000     2.769000000     5.655000000
O     6.632000000    -1.209000000    -2.926000000
H     5.985000000    -1.597000000    -2.337000000
H     7.472000000    -1.551000000    -2.620000000
O     2.026000000    -6.152000000    -0.676000000
H     1.808000000    -5.458000000    -0.054000000
H     2.614000000    -5.733000000    -1.305000000
O     1.717000000    -4.264000000     1.396000000
H     2.391000000    -3.589000000     1.314000000
H     1.450000000    -4.226000000     2.315000000
O     5.313000000     0.849000000    -0.521000000
H     5.255000000    -0.101000000    -0.619000000
H     4.644000000     1.192000000    -1.114000000
O    -1.964000000    -5.057000000     1.195000000
H    -1.597000000    -5.821000000     0.749000000
H    -2.900000000    -5.247000000     1.265000000
O    -5.756000000     0.503000000    -2.549000000
H    -5.678000000     0.152000000    -3.436000000
H    -4.864000000     0.479000000    -2.202000000
O    -5.049000000    -2.170000000     1.394000000
H    -5.076000000    -2.812000000     0.684000000
H    -4.124000000    -2.119000000     1.635000000
O     2.523000000     4.804000000     2.163000000
H     3.203000000     4.199000000     1.867000000
H     2.968000000     5.378000000     2.787000000
O     0.412000000     4.759000000    -3.872000000
H    -0.235000000     4.119000000    -3.579000000
H    -0.045000000     5.277000000    -4.535000000
O     3.026000000    -3.438000000     3.798000000
H     2.251000000    -3.193000000     4.304000000
H     3.764000000    -3.170000000     4.346000000
O    -0.175000000     5.856000000    -1.448000000
H    -0.282000000     5.268000000    -2.195000000
H    -0.207000000     5.281000000    -0.683000000
