161
-3082.87880
C    -0.738000000     0.051000000    -1.305000000
H    -1.178000000     0.124000000    -2.296000000
C     0.642000000     0.329000000    -1.101000000
H     1.172000000     0.770000000    -1.941000000
C     1.254000000     0.188000000     0.160000000
C     2.689000000     0.515000000     0.337000000
H     3.276000000    -0.378000000     0.562000000
H     3.026000000     1.063000000    -0.546000000
H     2.901000000     1.217000000     1.146000000
C     0.441000000    -0.186000000     1.233000000
H     0.808000000    -0.206000000     2.256000000
C    -0.955000000    -0.417000000     1.023000000
H    -1.499000000    -0.699000000     1.921000000
C    -1.532000000    -0.300000000    -0.227000000
C    -3.025000000    -0.649000000    -0.385000000
O    -3.760000000    -0.589000000     0.616000000
O    -3.528000000    -0.835000000    -1.448000000
O     2.834000000     3.087000000     3.600000000
H     2.146000000     2.436000000     3.739000000
H     2.607000000     3.501000000     2.767000000
O    -0.327000000     3.052000000    -3.670000000
H     0.549000000     2.669000000    -3.648000000
H    -0.206000000     3.905000000    -4.088000000
O     3.068000000    -2.829000000     2.717000000
H     2.206000000    -3.232000000     2.821000000
H     3.570000000    -3.463000000     2.205000000
O     3.254000000     5.662000000    -3.085000000
H     3.684000000     5.000000000    -2.543000000
H     3.975000000     6.134000000    -3.503000000
O    -3.004000000     2.634000000    -3.110000000
H    -2.073000000     2.712000000    -3.318000000
H    -3.435000000     3.248000000    -3.705000000
O    -8.073000000    -0.245000000     1.258000000
H    -8.313000000     0.442000000     1.881000000
H    -7.527000000     0.199000000     0.610000000
O    -7.395000000    -4.032000000     0.617000000
H    -8.005000000    -3.580000000     0.035000000
H    -6.547000000    -3.622000000     0.442000000
O    -5.686000000     0.939000000     0.060000000
H    -5.702000000     0.977000000    -0.897000000
H    -5.029000000     0.273000000     0.262000000
O    -3.078000000    -0.427000000    -7.024000000
H    -3.343000000    -1.346000000    -7.036000000
H    -2.995000000    -0.214000000    -6.094000000
O     0.626000000    -4.056000000     2.874000000
H     0.056000000    -3.406000000     3.285000000
H     0.100000000    -4.855000000     2.853000000
O     1.874000000     0.429000000     4.551000000
H     0.952000000     0.593000000     4.354000000
H     1.987000000     0.747000000     5.447000000
O    -2.225000000    -3.006000000    -2.353000000
H    -2.275000000    -3.459000000    -1.512000000
H    -2.659000000    -2.167000000    -2.199000000
O     2.940000000    -0.486000000    -4.200000000
H     2.797000000     0.455000000    -4.304000000
H     3.324000000    -0.575000000    -3.328000000
O     2.226000000    -3.033000000    -4.177000000
H     1.270000000    -2.987000000    -4.151000000
H     2.505000000    -2.128000000    -4.316000000
O    -5.701000000    -0.338000000    -5.396000000
H    -5.000000000     0.182000000    -5.003000000
H    -5.430000000    -1.246000000    -5.262000000
O     4.377000000    -0.635000000     3.693000000
H     3.993000000    -1.494000000     3.520000000
H     3.625000000    -0.056000000     3.815000000
O    -2.573000000    -4.774000000    -0.358000000
H    -2.647000000    -4.802000000     0.596000000
H    -2.310000000    -5.661000000    -0.604000000
O     0.191000000     0.044000000    -4.643000000
H    -0.025000000    -0.888000000    -4.614000000
H     0.908000000     0.143000000    -4.016000000
O     6.954000000     3.028000000     0.147000000
H     7.458000000     2.333000000    -0.278000000
H     6.826000000     3.684000000    -0.538000000
O    -3.637000000     2.680000000    -0.183000000
H    -3.442000000     2.656000000    -1.120000000
H    -4.276000000     1.980000000    -0.053000000
O     6.982000000    -0.350000000     2.807000000
H     7.203000000     0.551000000     3.044000000
H     6.074000000    -0.456000000     3.093000000
O     4.001000000     4.204000000     0.610000000
H     3.253000000     4.595000000     1.061000000
H     4.764000000     4.518000000     1.095000000
O    -6.378000000    -1.664000000     2.966000000
H    -6.973000000    -1.061000000     2.521000000
H    -6.833000000    -2.506000000     2.949000000
O    -0.830000000     1.909000000     3.607000000
H    -0.520000000     2.810000000     3.699000000
H    -1.623000000     1.981000000     3.076000000
O    -3.892000000    -4.578000000    -4.055000000
H    -3.241000000    -4.308000000    -3.408000000
H    -4.265000000    -5.384000000    -3.697000000
O    -5.757000000    -2.191000000    -0.775000000
H    -5.845000000    -1.656000000    -1.564000000
H    -5.035000000    -1.788000000    -0.293000000
O     0.456000000     1.160000000    -7.402000000
H     1.361000000     1.452000000    -7.509000000
H     0.414000000     0.833000000    -6.503000000
O    -0.434000000    -2.648000000    -4.242000000
H    -1.202000000    -2.576000000    -3.675000000
H    -0.782000000    -2.955000000    -5.079000000
O    -4.058000000    -0.246000000     3.135000000
H    -3.793000000    -0.423000000     2.232000000
H    -5.007000000    -0.368000000     3.134000000
O    -7.576000000    -1.363000000    -3.086000000
H    -7.026000000    -0.579000000    -3.068000000
H    -8.259000000    -1.162000000    -3.726000000
O    -5.143000000    -4.912000000    -0.987000000
H    -4.222000000    -4.699000000    -0.832000000
H    -5.545000000    -4.076000000    -1.222000000
O    -3.354000000     0.001000000    -4.209000000
H    -3.144000000     0.887000000    -3.913000000
H    -3.420000000    -0.512000000    -3.403000000
O    -0.505000000     4.979000000    -1.643000000
H    -0.378000000     4.405000000    -2.398000000
H    -0.467000000     4.392000000    -0.888000000
O    -3.171000000    -5.072000000     2.402000000
H    -3.349000000    -4.402000000     3.062000000
H    -3.946000000    -5.634000000     2.416000000
O    -1.058000000    -2.293000000     4.406000000
H    -1.839000000    -2.847000000     4.406000000
H    -1.386000000    -1.417000000     4.609000000
O    -1.628000000     0.317000000     5.796000000
H    -1.338000000     0.829000000     5.041000000
H    -1.170000000     0.708000000     6.540000000
O     4.830000000     3.073000000    -1.872000000
H     5.604000000     3.549000000    -2.171000000
H     4.641000000     3.441000000    -1.009000000
O    -3.213000000     2.429000000     2.498000000
H    -3.510000000     2.535000000     1.594000000
H    -3.689000000     1.663000000     2.818000000
O     4.773000000    -0.562000000    -2.126000000
H     5.158000000    -1.001000000    -1.367000000
H     4.847000000     0.371000000    -1.926000000
O     2.773000000     2.221000000    -3.757000000
H     3.522000000     2.495000000    -3.229000000
H     3.026000000     2.429000000    -4.657000000
O     0.794000000    -3.144000000    -0.884000000
H     0.945000000    -2.340000000    -0.388000000
H    -0.061000000    -3.015000000    -1.295000000
O    -3.832000000    -2.963000000     4.270000000
H    -4.107000000    -2.163000000     3.821000000
H    -4.532000000    -3.136000000     4.900000000
O     1.253000000     4.436000000     1.801000000
H     0.896000000     5.297000000     2.020000000
H     0.547000000     3.997000000     1.327000000
O    -6.266000000     1.601000000    -2.823000000
H    -6.990000000     1.914000000    -3.365000000
H    -5.802000000     2.396000000    -2.562000000
O    -0.483000000     2.907000000     0.577000000
H    -1.420000000     2.756000000     0.698000000
H    -0.101000000     2.030000000     0.540000000
O     4.497000000    -3.908000000    -1.968000000
H     3.916000000    -3.535000000    -2.631000000
H     4.947000000    -3.152000000    -1.591000000
O     5.701000000    -1.931000000     0.027000000
H     6.419000000    -2.502000000     0.299000000
H     5.671000000    -1.248000000     0.698000000
O     6.495000000     2.181000000     2.635000000
H     5.774000000     1.563000000     2.514000000
H     6.563000000     2.636000000     1.795000000
