161
-3050.71357
C    -1.107000000     0.913000000    -0.068000000
H    -1.690000000     1.829000000    -0.015000000
C     0.223000000     1.198000000    -0.233000000
H     0.578000000     2.218000000    -0.357000000
C     1.216000000     0.257000000    -0.141000000
C     2.670000000     0.637000000    -0.238000000
H     3.179000000     0.390000000     0.697000000
H     3.127000000     0.075000000    -1.055000000
H     2.711000000     1.685000000    -0.543000000
C     0.836000000    -1.103000000     0.056000000
H     1.543000000    -1.900000000     0.272000000
C    -0.569000000    -1.460000000     0.145000000
H    -0.889000000    -2.489000000     0.291000000
C    -1.558000000    -0.425000000     0.173000000
C    -3.035000000    -0.589000000     0.322000000
O    -3.495000000    -1.659000000     0.464000000
O    -3.732000000     0.418000000     0.233000000
O    -1.617000000     4.431000000    -0.713000000
H    -1.452000000     3.725000000    -1.337000000
H    -1.368000000     5.228000000    -1.182000000
O    -3.334000000    -5.049000000     2.107000000
H    -4.181000000    -5.028000000     2.552000000
H    -2.764000000    -5.538000000     2.701000000
O     3.100000000    -0.644000000    -6.211000000
H     3.614000000    -0.203000000    -5.535000000
H     2.325000000    -0.966000000    -5.750000000
O     0.332000000    -1.792000000    -2.748000000
H    -0.616000000    -1.847000000    -2.870000000
H     0.553000000    -0.894000000    -2.996000000
O     5.218000000     0.494000000     2.780000000
H     6.032000000     0.256000000     3.224000000
H     4.920000000    -0.320000000     2.373000000
O    -5.864000000    -2.894000000    -0.979000000
H    -5.113000000    -2.698000000    -0.418000000
H    -5.781000000    -3.827000000    -1.173000000
O    -5.154000000     4.210000000    -3.435000000
H    -4.789000000     3.465000000    -2.958000000
H    -5.391000000     3.855000000    -4.291000000
O    -0.651000000    -6.225000000    -0.730000000
H    -1.318000000    -5.609000000    -1.034000000
H     0.142000000    -5.969000000    -1.202000000
O    -6.977000000     2.872000000     2.019000000
H    -6.135000000     2.773000000     1.573000000
H    -7.088000000     3.818000000     2.114000000
O    -4.911000000     4.665000000    -0.886000000
H    -5.157000000     4.456000000    -1.787000000
H    -4.571000000     5.559000000    -0.931000000
O    -2.341000000     0.413000000    -3.217000000
H    -2.195000000    -0.461000000    -2.856000000
H    -3.057000000     0.772000000    -2.692000000
O     4.368000000    -2.752000000    -3.553000000
H     4.361000000    -1.799000000    -3.465000000
H     3.456000000    -2.983000000    -3.727000000
O    -4.340000000     1.822000000    -1.968000000
H    -5.191000000     1.392000000    -2.055000000
H    -3.959000000     1.441000000    -1.177000000
O     3.016000000     0.247000000     4.388000000
H     3.738000000     0.309000000     3.763000000
H     2.395000000     0.918000000     4.104000000
O     4.987000000    -0.023000000    -3.967000000
H     4.558000000     0.789000000    -3.699000000
H     5.918000000     0.196000000    -3.995000000
O    -7.084000000    -2.811000000    -3.363000000
H    -6.709000000    -2.725000000    -2.487000000
H    -7.076000000    -3.753000000    -3.535000000
O     5.015000000    -1.956000000     1.183000000
H     5.894000000    -2.110000000     1.529000000
H     5.132000000    -1.928000000     0.234000000
O    -0.573000000    -0.435000000     3.465000000
H    -0.731000000    -0.908000000     4.282000000
H     0.029000000    -0.995000000     2.976000000
O    -4.335000000     2.755000000     1.094000000
H    -4.168000000     3.343000000     0.357000000
H    -4.086000000     1.889000000     0.770000000
O     2.161000000    -2.164000000     5.215000000
H     1.301000000    -2.452000000     4.907000000
H     2.314000000    -1.337000000     4.759000000
O    -7.854000000    -0.339000000     1.946000000
H    -8.278000000    -0.332000000     1.087000000
H    -7.021000000    -0.786000000     1.798000000
O     6.045000000     2.135000000     0.682000000
H     5.397000000     2.711000000     1.087000000
H     6.150000000     1.417000000     1.307000000
O     1.544000000     3.544000000    -2.899000000
H     1.786000000     3.992000000    -2.088000000
H     2.376000000     3.405000000    -3.352000000
O    -2.535000000    -4.148000000    -0.511000000
H    -2.673000000    -4.820000000     0.157000000
H    -2.718000000    -3.323000000    -0.062000000
O     0.264000000    -3.422000000     3.827000000
H    -0.422000000    -4.054000000     4.040000000
H     0.624000000    -3.730000000     2.996000000
O    -5.435000000    -1.975000000     2.235000000
H    -4.669000000    -1.702000000     1.730000000
H    -5.401000000    -2.931000000     2.224000000
O    -6.482000000    -0.116000000    -1.298000000
H    -6.029000000     0.029000000    -0.467000000
H    -6.495000000    -1.067000000    -1.402000000
O     1.704000000    -3.050000000    -4.654000000
H     0.958000000    -2.993000000    -4.057000000
H     1.315000000    -3.018000000    -5.528000000
O    -1.245000000     2.919000000    -2.973000000
H    -0.320000000     2.759000000    -3.159000000
H    -1.653000000     2.055000000    -3.028000000
O     4.099000000     4.074000000     1.507000000
H     4.424000000     4.897000000     1.871000000
H     3.666000000     3.641000000     2.243000000
O    -2.277000000    -2.321000000    -2.688000000
H    -2.492000000    -2.755000000    -3.514000000
H    -2.427000000    -2.990000000    -2.020000000
O     1.562000000    -4.362000000     1.458000000
H     2.458000000    -4.592000000     1.212000000
H     1.159000000    -4.062000000     0.643000000
O    -2.997000000     0.775000000     3.302000000
H    -3.118000000     0.866000000     2.357000000
H    -2.096000000     0.466000000     3.400000000
O     8.256000000     1.351000000    -0.736000000
H     8.391000000     0.512000000    -0.295000000
H     7.386000000     1.633000000    -0.454000000
O     0.741000000    -6.991000000     1.562000000
H     0.015000000    -6.632000000     1.052000000
H     0.898000000    -6.340000000     2.246000000
O    -4.568000000    -6.810000000     0.283000000
H    -4.112000000    -6.019000000     0.569000000
H    -4.667000000    -7.332000000     1.079000000
O    -2.320000000     4.605000000    -4.632000000
H    -1.762000000     4.115000000    -4.028000000
H    -3.206000000     4.481000000    -4.294000000
O     3.943000000     3.114000000    -4.252000000
H     4.285000000     3.162000000    -5.145000000
H     4.702000000     2.879000000    -3.718000000
O     1.058000000    -4.025000000    -1.355000000
H     0.691000000    -3.213000000    -1.705000000
H     1.807000000    -4.212000000    -1.921000000
O     4.012000000    -5.251000000     0.912000000
H     4.064000000    -5.015000000    -0.014000000
H     4.849000000    -5.676000000     1.098000000
O     0.918000000     2.428000000     4.075000000
H     0.354000000     2.009000000     3.425000000
H     0.319000000     2.702000000     4.771000000
O    -4.859000000    -0.519000000     4.376000000
H    -5.087000000    -1.019000000     3.592000000
H    -4.199000000     0.107000000     4.077000000
O    -6.085000000    -4.705000000     2.812000000
H    -6.909000000    -4.353000000     3.151000000
H    -6.341000000    -5.493000000     2.332000000
O    -1.684000000     3.779000000     2.035000000
H    -1.641000000     3.940000000     1.092000000
H    -2.343000000     3.091000000     2.131000000
O     2.033000000     5.173000000    -0.528000000
H     2.647000000     4.607000000    -0.060000000
H     1.338000000     5.348000000     0.106000000
O     5.753000000     2.420000000    -2.297000000
H     6.633000000     2.796000000    -2.278000000
H     5.516000000     2.318000000    -1.375000000
O     0.349000000     5.895000000     1.537000000
H    -0.101000000     6.639000000     1.137000000
H    -0.326000000     5.456000000     2.054000000
O     1.298000000     0.650000000    -4.100000000
H     0.634000000     0.718000000    -4.786000000
H     1.360000000     1.533000000    -3.737000000
