161
-3040.88331
C    -0.576000000     1.140000000    -0.809000000
H    -0.995000000     1.921000000    -1.438000000
C     0.691000000     0.566000000    -1.072000000
H     1.200000000     0.916000000    -1.967000000
C     1.080000000    -0.531000000    -0.263000000
C     2.311000000    -1.370000000    -0.446000000
H     2.942000000    -1.137000000     0.413000000
H     2.142000000    -2.445000000    -0.538000000
H     2.756000000    -1.100000000    -1.406000000
C     0.333000000    -0.896000000     0.829000000
H     0.711000000    -1.670000000     1.493000000
C    -0.852000000    -0.244000000     1.092000000
H    -1.426000000    -0.702000000     1.893000000
C    -1.318000000     0.782000000     0.255000000
C    -2.625000000     1.459000000     0.581000000
O    -3.190000000     1.256000000     1.687000000
O    -3.192000000     2.056000000    -0.312000000
O    -1.230000000     4.234000000     2.051000000
H    -0.359000000     4.011000000     1.724000000
H    -1.641000000     4.714000000     1.332000000
O    -1.093000000     6.786000000    -2.855000000
H    -1.193000000     5.853000000    -3.045000000
H    -1.946000000     7.167000000    -3.064000000
O    -0.016000000    -4.344000000     5.395000000
H     0.509000000    -3.575000000     5.173000000
H    -0.064000000    -4.845000000     4.581000000
O     5.286000000    -0.860000000     2.444000000
H     4.682000000    -1.348000000     3.004000000
H     5.712000000    -1.530000000     1.910000000
O    -5.538000000    -0.550000000    -1.171000000
H    -5.583000000     0.087000000    -0.457000000
H    -6.452000000    -0.729000000    -1.390000000
O    -6.195000000     4.882000000    -0.385000000
H    -6.551000000     4.762000000    -1.265000000
H    -5.255000000     5.000000000    -0.521000000
O    -6.885000000     4.269000000     4.235000000
H    -6.078000000     4.053000000     3.767000000
H    -7.491000000     4.548000000     3.549000000
O    -7.916000000     1.924000000    -1.842000000
H    -8.047000000     1.244000000    -1.181000000
H    -6.969000000     2.062000000    -1.860000000
O    -3.319000000     1.849000000    -5.421000000
H    -4.123000000     1.397000000    -5.164000000
H    -2.615000000     1.276000000    -5.117000000
O     0.977000000    -0.474000000    -4.939000000
H     1.199000000     0.223000000    -4.322000000
H     1.446000000    -0.243000000    -5.741000000
O     5.208000000    -1.894000000    -3.191000000
H     4.264000000    -2.049000000    -3.217000000
H     5.296000000    -0.943000000    -3.259000000
O     7.315000000    -3.348000000    -2.394000000
H     6.680000000    -2.873000000    -2.930000000
H     8.118000000    -2.830000000    -2.461000000
O     0.847000000    -1.659000000     4.837000000
H     1.656000000    -1.182000000     5.024000000
H     0.192000000    -0.976000000     4.697000000
O     5.646000000     0.816000000    -3.638000000
H     5.499000000     1.039000000    -2.719000000
H     6.279000000     1.466000000    -3.944000000
O    -5.602000000     0.952000000    -3.520000000
H    -6.138000000     0.189000000    -3.737000000
H    -5.153000000     0.707000000    -2.711000000
O     6.146000000    -2.660000000     0.204000000
H     5.846000000    -2.376000000    -0.660000000
H     7.100000000    -2.668000000     0.135000000
O    -1.618000000    -6.257000000    -0.915000000
H    -0.711000000    -6.061000000    -0.680000000
H    -1.810000000    -7.079000000    -0.464000000
O    -3.569000000    -0.940000000     5.088000000
H    -2.661000000    -0.757000000     4.847000000
H    -3.580000000    -1.877000000     5.287000000
O     6.642000000     1.521000000     1.352000000
H     7.542000000     1.481000000     1.676000000
H     6.199000000     0.793000000     1.788000000
O    -3.152000000     4.741000000    -0.889000000
H    -3.211000000     4.657000000    -1.840000000
H    -3.107000000     3.840000000    -0.570000000
O     5.051000000     1.449000000    -1.197000000
H     4.255000000     1.976000000    -1.132000000
H     5.428000000     1.473000000    -0.318000000
O    -3.879000000    -2.088000000     1.885000000
H    -4.653000000    -2.460000000     2.308000000
H    -3.677000000    -1.307000000     2.400000000
O     2.677000000    -2.680000000    -3.729000000
H     2.077000000    -1.936000000    -3.685000000
H     2.777000000    -2.854000000    -4.665000000
O     3.299000000    -2.576000000     3.420000000
H     3.503000000    -3.024000000     4.241000000
H     2.375000000    -2.340000000     3.499000000
O    -5.860000000     0.911000000     2.386000000
H    -6.267000000     1.417000000     1.684000000
H    -4.921000000     1.057000000     2.274000000
O    -4.598000000     4.590000000     2.580000000
H    -4.655000000     3.812000000     2.027000000
H    -3.876000000     4.405000000     3.181000000
O    -5.683000000     2.026000000     0.063000000
H    -4.765000000     2.114000000    -0.192000000
H    -6.030000000     2.918000000     0.020000000
O    -1.960000000    -0.837000000    -4.581000000
H    -2.170000000    -1.286000000    -5.400000000
H    -1.008000000    -0.740000000    -4.599000000
O    -3.644000000     4.166000000    -3.586000000
H    -3.441000000     3.419000000    -4.150000000
H    -3.484000000     4.932000000    -4.138000000
O     1.362000000     3.329000000     1.131000000
H     1.561000000     2.548000000     1.648000000
H     2.179000000     3.827000000     1.124000000
O    -2.966000000    -2.456000000    -0.559000000
H    -3.123000000    -1.617000000    -0.993000000
H    -3.125000000    -2.278000000     0.368000000
O    -0.278000000    -5.371000000     3.021000000
H     0.214000000    -5.185000000     2.221000000
H    -1.196000000    -5.278000000     2.764000000
O     4.922000000    -4.652000000     1.655000000
H     4.679000000    -4.114000000     2.409000000
H     5.493000000    -4.088000000     1.133000000
O    -2.807000000     2.664000000     4.040000000
H    -2.805000000     2.201000000     3.202000000
H    -1.903000000     2.955000000     4.156000000
O    -2.907000000    -4.945000000     2.237000000
H    -3.069000000    -5.482000000     1.462000000
H    -3.350000000    -4.117000000     2.052000000
O     2.567000000     1.946000000    -3.936000000
H     3.430000000     1.994000000    -4.347000000
H     2.683000000     2.367000000    -3.085000000
O    -0.404000000    -3.523000000    -1.436000000
H    -1.325000000    -3.547000000    -1.178000000
H    -0.139000000    -2.614000000    -1.293000000
O    -2.877000000     1.599000000     6.580000000
H    -3.069000000     0.776000000     6.132000000
H    -2.967000000     2.268000000     5.902000000
O     0.885000000    -5.502000000     0.144000000
H     0.619000000    -4.711000000    -0.323000000
H     1.780000000    -5.666000000    -0.153000000
O    -1.287000000     0.322000000     4.663000000
H    -0.871000000     0.837000000     5.354000000
H    -1.750000000     0.966000000     4.128000000
O    -7.570000000    -1.742000000     2.543000000
H    -6.781000000    -2.254000000     2.720000000
H    -7.299000000    -0.833000000     2.670000000
O     3.229000000    -7.035000000     0.988000000
H     3.653000000    -6.228000000     1.279000000
H     3.953000000    -7.638000000     0.819000000
O     1.588000000     5.459000000    -2.137000000
H     2.233000000     4.759000000    -2.038000000
H     1.131000000     5.484000000    -1.295000000
O     3.475000000     3.738000000    -1.739000000
H     4.375000000     3.979000000    -1.958000000
H     3.458000000     3.717000000    -0.783000000
O     4.084000000    -4.944000000    -2.330000000
H     4.531000000    -4.443000000    -1.648000000
H     3.895000000    -4.303000000    -3.014000000
O     2.301000000     1.186000000     2.813000000
H     2.708000000     1.028000000     3.665000000
H     2.751000000     0.588000000     2.217000000
O    -1.834000000     6.637000000     0.795000000
H    -1.616000000     7.344000000     0.187000000
H    -2.334000000     6.014000000     0.268000000
O     0.743000000     4.138000000    -4.657000000
H     0.890000000     3.293000000    -4.231000000
H     0.924000000     4.785000000    -3.975000000
