161
-3041.60350
C    -0.966000000     0.567000000     0.875000000
H    -1.581000000     1.200000000     1.510000000
C     0.343000000     0.489000000     1.107000000
H     0.699000000     0.934000000     2.033000000
C     1.198000000    -0.102000000     0.215000000
C     2.604000000    -0.188000000     0.638000000
H     3.006000000    -1.097000000     0.186000000
H     3.157000000     0.699000000     0.322000000
H     2.706000000    -0.367000000     1.711000000
C     0.721000000    -0.639000000    -0.940000000
H     1.451000000    -1.064000000    -1.624000000
C    -0.641000000    -0.602000000    -1.243000000
H    -1.026000000    -0.880000000    -2.221000000
C    -1.493000000     0.063000000    -0.354000000
C    -2.993000000     0.237000000    -0.626000000
O    -3.547000000    -0.314000000    -1.589000000
O    -3.639000000     1.058000000     0.004000000
O    -2.622000000     1.278000000    -3.730000000
H    -2.956000000     0.550000000    -3.206000000
H    -2.754000000     1.002000000    -4.637000000
O    -0.564000000    -2.543000000     1.080000000
H    -0.196000000    -1.724000000     0.749000000
H     0.026000000    -2.804000000     1.787000000
O     1.388000000    -1.347000000    -5.385000000
H     0.721000000    -2.011000000    -5.211000000
H     1.319000000    -1.179000000    -6.325000000
O     7.239000000     2.083000000    -0.447000000
H     7.889000000     2.478000000    -1.029000000
H     7.095000000     1.208000000    -0.807000000
O    -6.004000000    -1.033000000    -1.099000000
H    -5.113000000    -0.856000000    -1.399000000
H    -5.931000000    -1.843000000    -0.595000000
O    -5.976000000     4.828000000    -2.584000000
H    -5.297000000     4.178000000    -2.403000000
H    -6.145000000     4.742000000    -3.522000000
O     0.048000000    -3.706000000    -1.378000000
H    -0.664000000    -3.347000000    -0.849000000
H     0.344000000    -2.969000000    -1.912000000
O    -0.628000000     2.977000000    -2.258000000
H    -0.960000000     2.324000000    -2.873000000
H     0.322000000     2.856000000    -2.270000000
O    -5.482000000     0.437000000    -5.813000000
H    -5.481000000     0.669000000    -4.884000000
H    -5.883000000    -0.432000000    -5.842000000
O     4.377000000     0.767000000     5.078000000
H     4.698000000     1.651000000     5.254000000
H     3.571000000     0.698000000     5.590000000
O    -6.711000000     1.260000000    -3.248000000
H    -5.974000000     1.472000000    -2.676000000
H    -7.018000000     0.407000000    -2.938000000
O     1.152000000     1.032000000    -3.868000000
H     1.089000000     0.228000000    -4.384000000
H     1.831000000     0.848000000    -3.220000000
O     3.232000000    -2.449000000    -3.872000000
H     3.785000000    -2.977000000    -4.449000000
H     2.586000000    -2.054000000    -4.457000000
O    -3.878000000     2.931000000    -1.901000000
H    -3.110000000     2.542000000    -2.320000000
H    -3.964000000     2.458000000    -1.073000000
O     3.162000000     3.670000000     4.611000000
H     3.391000000     3.035000000     3.933000000
H     2.627000000     4.322000000     4.159000000
O     3.973000000     0.105000000    -2.963000000
H     4.060000000    -0.741000000    -3.402000000
H     4.402000000    -0.019000000    -2.116000000
O    -5.998000000    -2.122000000    -5.000000000
H    -5.078000000    -2.303000000    -4.806000000
H    -6.447000000    -2.244000000    -4.163000000
O     4.445000000     1.840000000     2.328000000
H     5.230000000     1.335000000     2.118000000
H     3.824000000     1.192000000     2.660000000
O     0.136000000    -0.899000000     4.503000000
H     0.570000000    -1.481000000     3.878000000
H     0.741000000    -0.850000000     5.243000000
O    -3.901000000     4.716000000     0.300000000
H    -3.057000000     5.062000000     0.010000000
H    -4.076000000     3.985000000    -0.292000000
O     0.199000000     1.755000000     6.527000000
H    -0.018000000     2.201000000     7.346000000
H    -0.613000000     1.776000000     6.020000000
O     5.746000000     4.068000000     3.452000000
H     5.445000000     3.237000000     3.084000000
H     5.204000000     4.195000000     4.231000000
O    -6.321000000     1.930000000     0.318000000
H    -5.553000000     1.412000000     0.079000000
H    -6.679000000     1.487000000     1.087000000
O     4.469000000     2.843000000    -0.680000000
H     5.423000000     2.764000000    -0.676000000
H     4.176000000     2.235000000    -0.002000000
O    -3.412000000    -2.004000000    -3.693000000
H    -3.585000000    -2.924000000    -3.495000000
H    -3.628000000    -1.541000000    -2.883000000
O     1.611000000    -2.791000000     3.415000000
H     1.474000000    -3.610000000     3.892000000
H     2.119000000    -3.044000000     2.645000000
O    -3.805000000     0.217000000     2.621000000
H    -3.582000000     0.572000000     1.760000000
H    -3.800000000    -0.732000000     2.497000000
O    -4.915000000     4.189000000     2.843000000
H    -4.028000000     4.072000000     3.183000000
H    -4.790000000     4.416000000     1.922000000
O    -7.364000000     4.400000000    -0.073000000
H    -6.985000000     4.561000000    -0.937000000
H    -6.984000000     3.566000000     0.204000000
O     6.424000000    -0.080000000     2.130000000
H     6.685000000    -0.379000000     3.001000000
H     6.841000000    -0.698000000     1.530000000
O    -0.998000000    -2.853000000    -5.264000000
H    -1.803000000    -2.448000000    -4.941000000
H    -1.170000000    -3.023000000    -6.190000000
O     0.606000000     1.562000000    -6.557000000
H    -0.279000000     1.232000000    -6.714000000
H     0.662000000     1.653000000    -5.605000000
O    -2.057000000     0.364000000    -6.315000000
H    -1.924000000    -0.583000000    -6.296000000
H    -2.373000000     0.545000000    -7.200000000
O     5.464000000    -3.698000000     1.936000000
H     4.993000000    -3.063000000     1.397000000
H     4.798000000    -4.336000000     2.192000000
O    -1.696000000     1.128000000     4.332000000
H    -2.531000000     0.803000000     3.994000000
H    -1.099000000     0.385000000     4.249000000
O     0.073000000    -5.720000000     0.375000000
H     0.399000000    -5.094000000    -0.272000000
H     0.701000000    -5.669000000     1.095000000
O     2.056000000     3.702000000    -1.746000000
H     2.181000000     4.640000000    -1.602000000
H     2.802000000     3.291000000    -1.310000000
O     2.201000000    -3.758000000     0.827000000
H     2.810000000    -4.298000000     0.324000000
H     1.576000000    -3.433000000     0.178000000
O    -3.535000000    -2.190000000     1.707000000
H    -2.613000000    -2.445000000     1.661000000
H    -3.925000000    -2.558000000     0.914000000
O     6.909000000    -0.156000000    -1.724000000
H     7.853000000    -0.275000000    -1.622000000
H     6.563000000    -1.044000000    -1.813000000
O    -2.370000000     4.008000000     4.105000000
H    -2.111000000     3.089000000     4.181000000
H    -1.827000000     4.353000000     3.397000000
O    -5.419000000     1.917000000     4.332000000
H    -5.450000000     2.704000000     3.788000000
H    -5.051000000     1.245000000     3.758000000
O     0.129000000    -5.612000000    -4.497000000
H     0.068000000    -4.659000000    -4.436000000
H     1.056000000    -5.803000000    -4.354000000
O    -5.108000000    -3.508000000    -0.222000000
H    -5.799000000    -4.074000000     0.123000000
H    -4.576000000    -4.085000000    -0.769000000
O    -1.436000000     5.117000000    -0.947000000
H    -1.459000000     5.679000000    -1.721000000
H    -1.156000000     4.264000000    -1.279000000
O     4.148000000    -4.829000000    -0.747000000
H     5.076000000    -4.700000000    -0.550000000
H     4.143000000    -5.333000000    -1.561000000
O     1.502000000     5.509000000     3.546000000
H     0.996000000     5.942000000     4.233000000
H     0.847000000     5.057000000     3.014000000
O    -0.389000000     5.078000000     1.496000000
H     0.081000000     4.248000000     1.417000000
H    -0.751000000     5.232000000     0.623000000
