161
-3036.22469
C     0.296000000    -0.031000000    -1.430000000
H     0.720000000    -0.019000000    -2.430000000
C     0.684000000    -0.958000000    -0.471000000
H     1.174000000    -1.852000000    -0.849000000
C     0.173000000    -0.928000000     0.825000000
C     0.743000000    -1.835000000     1.843000000
H     0.699000000    -1.480000000     2.875000000
H     0.311000000    -2.823000000     1.669000000
H     1.806000000    -2.033000000     1.692000000
C    -0.612000000     0.107000000     1.193000000
H    -0.967000000     0.223000000     2.214000000
C    -0.978000000     1.055000000     0.207000000
H    -1.513000000     1.935000000     0.554000000
C    -0.415000000     1.072000000    -1.045000000
C    -0.623000000     2.216000000    -1.997000000
O    -1.464000000     3.109000000    -1.767000000
O    -0.031000000     2.236000000    -3.082000000
O     6.006000000    -0.651000000     3.468000000
H     6.839000000    -0.253000000     3.217000000
H     5.342000000    -0.035000000     3.157000000
O    -0.244000000     2.615000000    -7.103000000
H    -0.828000000     2.543000000    -6.348000000
H     0.469000000     2.006000000    -6.914000000
O     3.155000000    -1.711000000    -4.113000000
H     4.040000000    -1.704000000    -4.480000000
H     2.893000000    -2.631000000    -4.137000000
O     0.062000000     5.231000000    -1.397000000
H    -0.126000000     4.292000000    -1.402000000
H    -0.601000000     5.611000000    -1.974000000
O    -4.007000000     2.503000000     4.666000000
H    -4.331000000     3.140000000     5.303000000
H    -4.729000000     2.394000000     4.047000000
O     2.931000000     6.443000000    -2.129000000
H     2.224000000     5.800000000    -2.065000000
H     2.631000000     7.181000000    -1.599000000
O     3.813000000     2.227000000    -3.126000000
H     3.652000000     1.410000000    -2.654000000
H     4.312000000     1.962000000    -3.899000000
O    -2.223000000     5.142000000    -3.496000000
H    -2.187000000     4.303000000    -3.035000000
H    -2.837000000     4.993000000    -4.216000000
O    -3.416000000     4.763000000    -0.432000000
H    -4.088000000     4.115000000    -0.645000000
H    -2.588000000     4.314000000    -0.601000000
O    -2.432000000     0.148000000     4.586000000
H    -2.684000000    -0.522000000     3.951000000
H    -3.170000000     0.759000000     4.595000000
O     0.712000000    -5.062000000     5.413000000
H    -0.172000000    -4.881000000     5.093000000
H     0.849000000    -5.991000000     5.228000000
O    -0.607000000     1.200000000     6.585000000
H    -0.919000000     0.907000000     7.442000000
H    -1.271000000     0.891000000     5.970000000
O    -0.332000000    -5.168000000    -2.022000000
H     0.514000000    -5.152000000    -1.574000000
H    -0.977000000    -5.179000000    -1.315000000
O    -1.984000000    -4.071000000     5.133000000
H    -2.299000000    -4.381000000     5.982000000
H    -2.459000000    -3.253000000     4.985000000
O    -6.577000000     4.636000000    -2.440000000
H    -6.410000000     5.422000000    -1.922000000
H    -5.764000000     4.490000000    -2.924000000
O     2.292000000    -4.601000000    -1.682000000
H     2.806000000    -4.156000000    -1.008000000
H     2.816000000    -5.368000000    -1.915000000
O    -2.214000000    -4.111000000    -4.092000000
H    -1.700000000    -4.453000000    -4.823000000
H    -1.681000000    -4.294000000    -3.318000000
O    -2.181000000     2.236000000    -4.915000000
H    -2.525000000     1.428000000    -4.536000000
H    -1.440000000     2.466000000    -4.355000000
O     1.688000000     3.948000000    -3.967000000
H     0.919000000     3.502000000    -3.614000000
H     2.431000000     3.437000000    -3.644000000
O     2.375000000    -4.620000000     2.305000000
H     2.135000000    -3.994000000     2.988000000
H     2.247000000    -5.478000000     2.711000000
O     5.499000000    -4.720000000     2.041000000
H     6.331000000    -4.659000000     1.572000000
H     5.352000000    -5.660000000     2.148000000
O    -2.441000000    -0.436000000    -3.412000000
H    -2.083000000    -0.542000000    -2.530000000
H    -3.318000000    -0.080000000    -3.273000000
O     3.930000000     4.147000000    -5.743000000
H     4.133000000     5.012000000    -5.386000000
H     3.120000000     3.891000000    -5.303000000
O     2.012000000     3.680000000     1.257000000
H     1.824000000     3.184000000     2.054000000
H     2.422000000     3.045000000     0.671000000
O     1.373000000    -3.776000000    -4.257000000
H     1.277000000    -3.718000000    -3.306000000
H     0.791000000    -3.097000000    -4.598000000
O     3.865000000     0.700000000     2.836000000
H     3.425000000     1.170000000     3.545000000
H     3.256000000     0.752000000     2.100000000
O     4.044000000    -3.459000000    -0.118000000
H     4.829000000    -2.945000000    -0.306000000
H     4.117000000    -3.679000000     0.810000000
O    -3.822000000     1.961000000    -1.838000000
H    -4.284000000     2.460000000    -2.511000000
H    -2.942000000     2.336000000    -1.823000000
O     1.880000000    -2.193000000     5.309000000
H     1.579000000    -3.102000000     5.330000000
H     2.598000000    -2.194000000     4.676000000
O     3.795000000    -0.269000000    -1.864000000
H     4.538000000    -0.633000000    -1.382000000
H     3.571000000    -0.943000000    -2.505000000
O     1.892000000     0.466000000     5.171000000
H     1.963000000    -0.488000000     5.216000000
H     0.973000000     0.647000000     5.370000000
O    -3.555000000    -1.485000000     2.527000000
H    -3.972000000    -2.268000000     2.888000000
H    -4.279000000    -0.972000000     2.169000000
O    -4.925000000     3.281000000    -4.137000000
H    -4.390000000     2.640000000    -4.605000000
H    -5.728000000     3.346000000    -4.656000000
O    -3.098000000     7.632000000    -1.958000000
H    -3.028000000     6.706000000    -2.186000000
H    -3.104000000     8.087000000    -2.800000000
O    -1.477000000    -5.094000000     2.444000000
H    -2.181000000    -5.740000000     2.389000000
H    -1.604000000    -4.672000000     3.293000000
O     1.060000000     0.963000000    -5.363000000
H     1.714000000     0.351000000    -5.026000000
H     0.927000000     1.588000000    -4.651000000
O     0.392000000     2.726000000     3.160000000
H    -0.266000000     2.041000000     3.037000000
H    -0.103000000     3.544000000     3.119000000
O    -6.251000000     1.955000000    -0.244000000
H    -6.157000000     1.742000000    -1.173000000
H    -5.377000000     1.818000000     0.122000000
O     0.666000000     5.216000000    -6.497000000
H     0.277000000     4.525000000    -7.033000000
H     1.048000000     4.754000000    -5.751000000
O    -0.354000000     5.898000000     1.676000000
H    -0.975000000     5.283000000     2.067000000
H    -0.081000000     5.477000000     0.861000000
O     0.649000000    -5.702000000     0.548000000
H     1.429000000    -5.283000000     0.912000000
H    -0.064000000    -5.415000000     1.119000000
O    -2.393000000    -4.110000000    -0.107000000
H    -3.010000000    -4.835000000    -0.004000000
H    -1.894000000    -4.102000000     0.709000000
O     4.507000000    -2.657000000     4.139000000
H     5.071000000    -1.937000000     3.858000000
H     4.700000000    -3.366000000     3.525000000
O     0.026000000     3.727000000     5.945000000
H    -0.427000000     2.930000000     6.219000000
H     0.475000000     3.482000000     5.136000000
O    -0.248000000    -1.462000000    -4.694000000
H    -1.061000000    -1.313000000    -4.211000000
H     0.181000000    -0.607000000    -4.710000000
O    -5.196000000     5.731000000     1.755000000
H    -5.889000000     5.342000000     1.222000000
H    -4.383000000     5.421000000     1.355000000
O    -2.035000000     4.428000000     3.381000000
H    -2.450000000     5.204000000     3.757000000
H    -2.522000000     3.692000000     3.753000000
O     2.601000000     1.223000000     0.442000000
H     1.849000000     0.640000000     0.539000000
H     3.151000000     0.798000000    -0.215000000
