161
-3034.35268
C    -0.613000000     0.911000000     0.891000000
H    -0.984000000     1.768000000     1.446000000
C     0.627000000     1.100000000     0.280000000
H     1.086000000     2.082000000     0.350000000
C     1.125000000     0.057000000    -0.498000000
C     2.383000000     0.387000000    -1.266000000
H     3.244000000    -0.245000000    -1.041000000
H     2.089000000     0.209000000    -2.302000000
H     2.645000000     1.445000000    -1.198000000
C     0.351000000    -1.087000000    -0.694000000
H     0.816000000    -1.859000000    -1.302000000
C    -0.891000000    -1.257000000    -0.060000000
H    -1.497000000    -2.155000000    -0.149000000
C    -1.342000000    -0.223000000     0.778000000
C    -2.670000000    -0.332000000     1.389000000
O    -3.361000000    -1.326000000     1.179000000
O    -3.006000000     0.520000000     2.194000000
O    -1.252000000    -2.686000000     6.002000000
H    -0.352000000    -2.766000000     5.686000000
H    -1.790000000    -2.766000000     5.214000000
O     7.273000000    -1.918000000    -2.672000000
H     7.014000000    -1.075000000    -2.300000000
H     6.475000000    -2.446000000    -2.649000000
O     1.314000000     0.164000000    -4.825000000
H     1.077000000     1.033000000    -4.503000000
H     1.066000000     0.175000000    -5.750000000
O     0.561000000     4.366000000    -1.733000000
H     0.752000000     4.922000000    -2.488000000
H    -0.338000000     4.589000000    -1.492000000
O    -3.665000000     2.530000000    -0.900000000
H    -3.693000000     2.571000000    -1.856000000
H    -3.718000000     1.596000000    -0.699000000
O     1.014000000    -2.333000000     4.085000000
H     1.399000000    -1.457000000     4.097000000
H     1.242000000    -2.683000000     3.224000000
O    -7.760000000     2.345000000     2.066000000
H    -7.267000000     2.842000000     2.719000000
H    -7.130000000     1.713000000     1.720000000
O     1.704000000    -3.689000000     1.844000000
H     2.195000000    -3.302000000     1.119000000
H     1.053000000    -4.249000000     1.420000000
O     0.896000000    -5.177000000    -2.546000000
H     1.763000000    -5.368000000    -2.189000000
H     0.995000000    -4.328000000    -2.976000000
O    -6.292000000     1.897000000     5.340000000
H    -7.074000000     1.827000000     5.888000000
H    -6.587000000     2.370000000     4.562000000
O     4.383000000     3.516000000    -2.130000000
H     4.568000000     4.343000000    -2.575000000
H     4.761000000     2.847000000    -2.701000000
O     5.738000000     0.033000000    -1.855000000
H     5.268000000     0.450000000    -2.577000000
H     5.755000000     0.696000000    -1.165000000
O     2.156000000     0.215000000     4.305000000
H     1.541000000     0.812000000     3.879000000
H     3.013000000     0.621000000     4.176000000
O    -2.651000000    -6.189000000     0.323000000
H    -2.497000000    -6.393000000    -0.599000000
H    -3.105000000    -5.346000000     0.309000000
O    -5.074000000    -1.926000000     3.102000000
H    -5.914000000    -1.859000000     2.649000000
H    -4.440000000    -1.555000000     2.488000000
O    -6.232000000     3.988000000     3.512000000
H    -6.199000000     4.795000000     4.025000000
H    -5.476000000     4.045000000     2.928000000
O     2.295000000     4.538000000     0.392000000
H     2.686000000     5.374000000     0.141000000
H     1.658000000     4.354000000    -0.299000000
O    -4.236000000     4.508000000     0.833000000
H    -5.174000000     4.697000000     0.859000000
H    -4.153000000     3.792000000     0.203000000
O    -7.204000000    -4.157000000     3.682000000
H    -8.155000000    -4.264000000     3.655000000
H    -6.994000000    -3.677000000     2.881000000
O    -2.385000000    -1.338000000    -3.094000000
H    -2.405000000    -0.868000000    -3.927000000
H    -1.784000000    -0.832000000    -2.547000000
O     4.446000000     1.263000000    -4.063000000
H     4.752000000     0.602000000    -4.684000000
H     3.496000000     1.284000000    -4.185000000
O    -4.360000000     0.459000000     6.443000000
H    -5.034000000     1.082000000     6.170000000
H    -3.678000000     0.536000000     5.776000000
O    -0.266000000    -5.598000000     3.300000000
H    -0.020000000    -4.794000000     3.757000000
H    -0.400000000    -5.326000000     2.392000000
O    -3.047000000     3.154000000     2.793000000
H    -2.877000000     2.227000000     2.622000000
H    -3.458000000     3.475000000     1.991000000
O    -7.057000000    -2.760000000     1.184000000
H    -6.381000000    -2.436000000     0.589000000
H    -7.854000000    -2.304000000     0.914000000
O     4.813000000     0.005000000     1.559000000
H     4.679000000    -0.735000000     0.967000000
H     4.713000000     0.778000000     1.004000000
O    -0.037000000     4.605000000     1.775000000
H    -0.473000000     5.108000000     1.087000000
H     0.846000000     4.454000000     1.438000000
O    -5.614000000     0.872000000     1.527000000
H    -5.732000000     0.243000000     0.815000000
H    -4.726000000     0.709000000     1.845000000
O    -1.638000000     5.772000000    -0.120000000
H    -1.965000000     6.356000000    -0.805000000
H    -2.407000000     5.274000000     0.157000000
O     4.623000000    -3.297000000    -3.566000000
H     4.372000000    -4.220000000    -3.618000000
H     4.036000000    -2.854000000    -4.178000000
O    -4.905000000    -2.385000000    -2.921000000
H    -4.011000000    -2.183000000    -3.200000000
H    -5.141000000    -3.166000000    -3.421000000
O    -0.087000000     2.276000000     4.104000000
H    -0.643000000     1.810000000     4.728000000
H    -0.697000000     2.797000000     3.582000000
O    -0.933000000    -3.334000000    -5.908000000
H    -0.347000000    -2.969000000    -5.245000000
H    -0.837000000    -4.282000000    -5.817000000
O    -2.872000000    -3.362000000     3.913000000
H    -3.656000000    -2.866000000     3.677000000
H    -3.064000000    -4.258000000     3.636000000
O    -1.927000000     0.099000000     4.643000000
H    -1.531000000    -0.768000000     4.552000000
H    -2.341000000     0.263000000     3.796000000
O    -4.134000000    -3.950000000     0.462000000
H    -4.743000000    -3.946000000    -0.277000000
H    -4.178000000    -3.061000000     0.813000000
O     0.175000000    -5.540000000     0.448000000
H    -0.731000000    -5.723000000     0.199000000
H     0.693000000    -5.827000000    -0.305000000
O    -5.517000000    -1.425000000    -0.348000000
H    -5.408000000    -1.707000000    -1.256000000
H    -4.630000000    -1.218000000    -0.054000000
O    -4.084000000     3.464000000     5.417000000
H    -3.756000000     3.393000000     4.521000000
H    -5.007000000     3.221000000     5.355000000
O     4.137000000    -2.737000000    -0.168000000
H     4.958000000    -3.191000000     0.023000000
H     4.242000000    -2.418000000    -1.064000000
O     5.001000000     1.384000000     3.711000000
H     5.799000000     1.835000000     3.436000000
H     4.874000000     0.700000000     3.053000000
O    -1.182000000     1.271000000    -2.799000000
H    -1.061000000     1.549000000    -1.891000000
H    -1.620000000     2.012000000    -3.219000000
O     0.431000000    -2.288000000    -3.804000000
H    -0.312000000    -2.228000000    -3.204000000
H     0.764000000    -1.392000000    -3.863000000
O     5.102000000     2.465000000     0.255000000
H     4.757000000     2.740000000    -0.594000000
H     4.776000000     3.121000000     0.871000000
O    -1.733000000     5.346000000     4.091000000
H    -2.457000000     5.446000000     3.473000000
H    -0.980000000     5.123000000     3.544000000
O     2.422000000     3.365000000     4.007000000
H     2.266000000     3.250000000     4.944000000
H     1.649000000     2.987000000     3.587000000
O     4.278000000     4.286000000     2.386000000
H     3.643000000     4.681000000     1.788000000
H     3.746000000     3.923000000     3.094000000
O     1.689000000     2.907000000    -3.952000000
H     2.378000000     3.217000000    -3.365000000
H     0.923000000     2.801000000    -3.388000000
