161
-3043.81223
C     0.546000000     1.336000000     0.409000000
H     0.932000000     2.294000000     0.748000000
C     0.892000000     0.634000000    -0.753000000
H     1.686000000     1.001000000    -1.399000000
C     0.300000000    -0.625000000    -1.036000000
C     0.705000000    -1.267000000    -2.308000000
H    -0.013000000    -0.994000000    -3.084000000
H     1.762000000    -1.111000000    -2.535000000
H     0.651000000    -2.344000000    -2.139000000
C    -0.659000000    -1.170000000    -0.172000000
H    -1.109000000    -2.131000000    -0.408000000
C    -0.969000000    -0.468000000     1.008000000
H    -1.735000000    -0.839000000     1.685000000
C    -0.369000000     0.778000000     1.301000000
C    -0.802000000     1.495000000     2.541000000
O    -1.546000000     0.909000000     3.272000000
O    -0.274000000     2.499000000     2.874000000
O    -4.507000000     0.463000000    -2.583000000
H    -3.944000000     0.183000000    -3.305000000
H    -4.311000000     1.393000000    -2.474000000
O    -3.906000000     3.992000000     0.632000000
H    -3.733000000     3.303000000    -0.009000000
H    -3.159000000     3.958000000     1.229000000
O     1.349000000     1.751000000    -4.306000000
H     2.213000000     1.359000000    -4.179000000
H     0.961000000     1.250000000    -5.023000000
O    -4.681000000    -3.215000000    -0.632000000
H    -4.935000000    -2.318000000    -0.416000000
H    -4.328000000    -3.567000000     0.185000000
O     0.818000000    -6.029000000     2.706000000
H     1.026000000    -6.591000000     1.960000000
H     0.535000000    -5.204000000     2.313000000
O     2.007000000    -3.959000000    -6.062000000
H     2.793000000    -3.748000000    -6.566000000
H     2.338000000    -4.253000000    -5.213000000
O     3.238000000     0.432000000     2.444000000
H     3.623000000     1.278000000     2.214000000
H     2.472000000     0.354000000     1.875000000
O    -1.424000000    -5.190000000    -3.441000000
H    -0.508000000    -5.323000000    -3.198000000
H    -1.658000000    -4.352000000    -3.044000000
O    -3.535000000     0.672000000     7.939000000
H    -3.053000000     1.160000000     8.607000000
H    -3.398000000     1.170000000     7.133000000
O     3.953000000     0.252000000    -2.698000000
H     4.160000000    -0.115000000    -1.839000000
H     3.882000000    -0.509000000    -3.274000000
O    -2.031000000    -0.435000000    -4.870000000
H    -2.301000000    -0.102000000    -5.726000000
H    -2.008000000    -1.386000000    -4.979000000
O     4.367000000    -0.301000000    -5.690000000
H     4.823000000    -1.102000000    -5.430000000
H     3.459000000    -0.574000000    -5.821000000
O    -5.462000000    -1.430000000     2.548000000
H    -6.347000000    -1.232000000     2.855000000
H    -5.443000000    -1.105000000     1.648000000
O    -2.035000000    -3.176000000    -5.778000000
H    -1.777000000    -3.836000000    -5.135000000
H    -1.326000000    -3.176000000    -6.420000000
O     3.296000000    -3.082000000    -1.468000000
H     3.223000000    -2.279000000    -0.954000000
H     3.989000000    -3.581000000    -1.036000000
O     4.030000000     2.885000000     1.691000000
H     4.084000000     3.110000000     0.762000000
H     4.063000000     3.728000000     2.144000000
O     0.972000000    -2.901000000     4.279000000
H     0.245000000    -2.411000000     4.662000000
H     1.753000000    -2.536000000     4.695000000
O     2.334000000     6.761000000    -0.137000000
H     1.931000000     6.077000000    -0.672000000
H     1.671000000     6.970000000     0.522000000
O    -5.732000000    -0.751000000    -0.488000000
H    -5.307000000    -0.137000000    -1.086000000
H    -6.595000000    -0.903000000    -0.875000000
O    -3.946000000     0.377000000     4.045000000
H    -4.344000000    -0.302000000     3.499000000
H    -3.050000000     0.454000000     3.715000000
O    -1.623000000     5.833000000    -0.093000000
H    -2.239000000     5.347000000     0.455000000
H    -1.277000000     5.180000000    -0.702000000
O     2.049000000    -0.320000000    -7.093000000
H     2.933000000    -0.305000000    -7.461000000
H     1.566000000     0.330000000    -7.603000000
O    -1.134000000     3.274000000    -1.444000000
H    -0.960000000     2.354000000    -1.249000000
H    -1.555000000     3.261000000    -2.304000000
O     1.347000000     4.844000000    -1.781000000
H     2.069000000     4.217000000    -1.728000000
H     0.558000000     4.304000000    -1.746000000
O    -1.982000000    -6.272000000     0.597000000
H    -1.688000000    -5.362000000     0.648000000
H    -2.907000000    -6.239000000     0.841000000
O    -1.236000000     4.281000000     7.007000000
H    -0.298000000     4.092000000     7.023000000
H    -1.628000000     3.512000000     6.594000000
O    -0.845000000    -0.952000000     5.064000000
H    -0.096000000    -0.457000000     5.397000000
H    -1.297000000    -0.341000000     4.483000000
O    -3.683000000    -3.479000000     1.867000000
H    -4.410000000    -2.887000000     2.060000000
H    -3.482000000    -3.894000000     2.706000000
O     3.681000000     4.963000000     3.329000000
H     2.738000000     4.803000000     3.301000000
H     3.766000000     5.824000000     3.739000000
O     2.562000000     4.414000000    -4.734000000
H     2.128000000     3.726000000    -4.229000000
H     3.242000000     4.748000000    -4.149000000
O     4.944000000    -0.426000000    -0.253000000
H     4.813000000    -0.439000000     0.696000000
H     5.894000000    -0.393000000    -0.363000000
O     0.740000000     2.882000000     5.051000000
H     1.666000000     2.700000000     4.891000000
H     0.335000000     2.842000000     4.185000000
O    -2.073000000     4.388000000     2.397000000
H    -1.463000000     3.676000000     2.588000000
H    -2.165000000     4.855000000     3.228000000
O    -1.237000000     1.966000000    -3.797000000
H    -0.303000000     1.909000000    -3.997000000
H    -1.621000000     1.205000000    -4.233000000
O    -0.093000000    -3.508000000     1.665000000
H     0.286000000    -3.350000000     2.530000000
H    -0.187000000    -2.636000000     1.283000000
O    -2.355000000     2.602000000     5.350000000
H    -1.716000000     2.043000000     4.907000000
H    -3.199000000     2.184000000     5.178000000
O    -6.133000000     0.024000000     5.829000000
H    -5.434000000     0.350000000     5.263000000
H    -6.785000000    -0.333000000     5.225000000
O     0.953000000    -5.314000000    -1.707000000
H     1.565000000    -4.805000000    -1.175000000
H     0.788000000    -6.104000000    -1.193000000
O     0.993000000     4.735000000     2.598000000
H     0.310000000     5.398000000     2.500000000
H     0.517000000     3.930000000     2.802000000
O     4.605000000    -2.335000000    -3.477000000
H     5.510000000    -2.647000000    -3.469000000
H     4.156000000    -2.885000000    -2.834000000
O     3.101000000     1.374000000     5.240000000
H     3.346000000     0.661000000     4.652000000
H     2.554000000     0.958000000     5.907000000
O    -2.947000000    -2.317000000     5.911000000
H    -2.423000000    -1.612000000     5.530000000
H    -3.735000000    -1.881000000     6.236000000
O    -1.390000000     5.810000000     4.731000000
H    -1.481000000     5.212000000     5.473000000
H    -0.649000000     6.369000000     4.963000000
O    -2.703000000    -3.075000000    -2.570000000
H    -2.277000000    -2.330000000    -2.146000000
H    -3.469000000    -3.255000000    -2.025000000
O    -3.499000000    -4.427000000     4.361000000
H    -3.315000000    -5.188000000     4.912000000
H    -3.414000000    -3.678000000     4.951000000
O     3.037000000    -5.791000000    -3.550000000
H     2.791000000    -6.495000000    -4.150000000
H     2.250000000    -5.636000000    -3.027000000
O     3.279000000     2.849000000    -1.499000000
H     3.516000000     2.015000000    -1.905000000
H     4.097000000     3.175000000    -1.125000000
O     2.247000000     5.278000000     6.024000000
H     1.504000000     4.785000000     5.676000000
H     2.067000000     5.355000000     6.960000000
