161
-3039.60587
C     0.920000000     0.783000000     0.819000000
H     1.703000000     1.385000000     1.273000000
C     1.271000000    -0.182000000    -0.127000000
H     2.298000000    -0.453000000    -0.359000000
C     0.285000000    -0.922000000    -0.761000000
C     0.656000000    -1.920000000    -1.853000000
H     0.517000000    -2.948000000    -1.511000000
H    -0.069000000    -1.832000000    -2.666000000
H     1.701000000    -1.884000000    -2.167000000
C    -1.039000000    -0.668000000    -0.457000000
H    -1.851000000    -1.210000000    -0.935000000
C    -1.377000000     0.359000000     0.410000000
H    -2.414000000     0.640000000     0.574000000
C    -0.374000000     1.145000000     1.032000000
C    -0.662000000     2.222000000     2.023000000
O    -1.748000000     2.315000000     2.538000000
O     0.184000000     3.167000000     2.163000000
O     6.260000000     0.762000000    -0.479000000
H     5.886000000     0.170000000    -1.131000000
H     6.935000000     0.242000000    -0.042000000
O    -5.591000000     3.692000000    -1.220000000
H    -4.951000000     3.008000000    -1.023000000
H    -5.288000000     4.453000000    -0.724000000
O     1.119000000    -1.385000000    -5.871000000
H     2.035000000    -1.297000000    -5.608000000
H     1.065000000    -0.929000000    -6.710000000
O     4.554000000    -2.260000000     1.692000000
H     4.227000000    -2.115000000     2.581000000
H     4.826000000    -1.392000000     1.393000000
O    -5.425000000    -4.884000000    -1.673000000
H    -5.172000000    -4.212000000    -1.040000000
H    -4.595000000    -5.237000000    -1.992000000
O     1.382000000     6.983000000    -0.847000000
H     0.711000000     6.760000000    -0.202000000
H     0.916000000     6.995000000    -1.683000000
O     2.346000000     4.167000000     6.601000000
H     1.942000000     3.609000000     7.265000000
H     1.844000000     3.994000000     5.804000000
O     3.386000000    -1.447000000     3.962000000
H     3.678000000    -0.547000000     4.106000000
H     2.827000000    -1.640000000     4.715000000
O    -2.726000000    -5.844000000    -1.759000000
H    -2.311000000    -5.055000000    -1.412000000
H    -2.538000000    -6.520000000    -1.108000000
O    -0.946000000    -2.227000000     4.114000000
H    -1.764000000    -2.600000000     4.442000000
H    -1.126000000    -1.291000000     4.028000000
O    -5.587000000     0.612000000     5.304000000
H    -5.268000000    -0.277000000     5.461000000
H    -5.253000000     0.835000000     4.435000000
O     3.855000000    -1.335000000    -4.804000000
H     4.358000000    -1.452000000    -5.609000000
H     3.519000000    -2.208000000    -4.602000000
O    -2.871000000     0.288000000    -4.381000000
H    -3.744000000     0.663000000    -4.260000000
H    -2.989000000    -0.649000000    -4.219000000
O     0.160000000    -7.672000000    -1.724000000
H     0.480000000    -8.114000000    -0.938000000
H     0.555000000    -6.801000000    -1.688000000
O    -4.414000000    -3.269000000     0.152000000
H    -3.489000000    -3.121000000    -0.045000000
H    -4.550000000    -2.845000000     0.999000000
O    -3.060000000    -2.808000000    -3.979000000
H    -3.216000000    -3.553000000    -3.399000000
H    -2.440000000    -3.137000000    -4.629000000
O     3.693000000    -4.131000000    -0.966000000
H     3.971000000    -3.722000000    -0.147000000
H     4.500000000    -4.225000000    -1.473000000
O     0.253000000    -2.973000000     1.713000000
H    -0.114000000    -2.733000000     2.564000000
H     0.386000000    -2.137000000     1.266000000
O    -6.726000000    -0.665000000     0.647000000
H    -6.855000000    -1.610000000     0.566000000
H    -7.393000000    -0.283000000     0.077000000
O    -2.708000000     0.041000000     3.527000000
H    -3.542000000     0.226000000     3.097000000
H    -2.272000000     0.891000000     3.579000000
O    -6.081000000     4.072000000     2.045000000
H    -6.471000000     4.853000000     1.652000000
H    -5.419000000     3.791000000     1.413000000
O     4.516000000     0.882000000     4.935000000
H     4.540000000     1.833000000     4.827000000
H     4.162000000     0.750000000     5.814000000
O     0.175000000     7.858000000     4.693000000
H     1.019000000     7.968000000     4.254000000
H    -0.059000000     6.943000000     4.537000000
O    -0.535000000    -5.646000000     1.065000000
H     0.231000000    -5.333000000     0.585000000
H    -0.314000000    -6.545000000     1.309000000
O     0.000000000     3.674000000    -2.000000000
H    -0.229000000     4.448000000    -2.516000000
H     0.005000000     2.957000000    -2.634000000
O     2.662000000     2.850000000    -1.828000000
H     1.709000000     2.819000000    -1.742000000
H     2.832000000     3.651000000    -2.324000000
O     2.505000000    -3.880000000    -3.810000000
H     1.625000000    -4.254000000    -3.851000000
H     2.686000000    -3.798000000    -2.874000000
O    -0.808000000     2.979000000     7.364000000
H    -0.992000000     3.739000000     7.917000000
H    -1.450000000     3.036000000     6.657000000
O    -2.702000000     6.146000000     3.286000000
H    -1.819000000     6.017000000     2.940000000
H    -2.924000000     7.045000000     3.045000000
O     0.677000000     3.373000000     4.738000000
H    -0.135000000     3.144000000     5.192000000
H     0.445000000     3.353000000     3.809000000
O     5.090000000    -1.345000000    -2.488000000
H     5.083000000    -1.590000000    -3.413000000
H     5.668000000    -1.987000000    -2.074000000
O    -0.179000000     5.696000000     2.508000000
H    -0.439000000     5.782000000     1.591000000
H     0.304000000     4.870000000     2.544000000
O    -3.528000000     3.368000000     0.820000000
H    -2.898000000     2.925000000     1.388000000
H    -3.351000000     4.300000000     0.947000000
O     2.214000000    -4.656000000     3.005000000
H     1.869000000    -4.021000000     2.377000000
H     2.406000000    -4.139000000     3.787000000
O    -0.630000000     1.366000000    -3.425000000
H    -0.507000000     0.782000000    -2.677000000
H    -1.347000000     0.972000000    -3.921000000
O    -5.056000000    -2.806000000     2.638000000
H    -4.797000000    -2.750000000     3.558000000
H    -5.686000000    -2.094000000     2.523000000
O    -2.181000000     3.769000000     4.912000000
H    -1.963000000     3.108000000     4.255000000
H    -2.274000000     4.581000000     4.413000000
O    -4.998000000     0.854000000     2.386000000
H    -5.342000000     0.263000000     1.716000000
H    -4.993000000     1.714000000     1.967000000
O    -1.536000000    -3.592000000    -0.316000000
H    -1.291000000    -4.327000000     0.246000000
H    -0.867000000    -2.929000000    -0.149000000
O    -0.992000000     5.301000000     0.038000000
H    -1.822000000     5.314000000    -0.438000000
H    -0.445000000     4.685000000    -0.450000000
O     3.592000000    -5.260000000    -5.882000000
H     2.979000000    -5.102000000    -6.600000000
H     3.169000000    -4.871000000    -5.117000000
O     2.761000000     4.105000000     2.227000000
H     3.154000000     3.582000000     1.528000000
H     1.820000000     4.064000000     2.057000000
O     1.884000000    -5.943000000    -0.396000000
H     2.519000000    -6.628000000    -0.189000000
H     2.414000000    -5.157000000    -0.527000000
O     6.769000000     2.968000000     2.075000000
H     5.871000000     2.708000000     1.869000000
H     7.225000000     2.940000000     1.234000000
O    -0.577000000    -3.332000000    -5.456000000
H    -0.047000000    -2.536000000    -5.414000000
H    -0.463000000    -3.648000000    -6.353000000
O     4.352000000     2.670000000     0.434000000
H     5.036000000     2.026000000     0.246000000
H     4.010000000     2.914000000    -0.426000000
O     0.034000000    -5.794000000    -4.796000000
H    -0.655000000    -6.412000000    -4.552000000
H    -0.427000000    -4.966000000    -4.936000000
O     3.887000000     1.566000000    -3.787000000
H     3.389000000     1.751000000    -2.991000000
H     4.083000000     0.630000000    -3.735000000
