161
-3064.52483
C     0.214000000     0.463000000     1.389000000
H     0.555000000     0.904000000     2.322000000
C     1.210000000    -0.044000000     0.520000000
H     2.224000000    -0.096000000     0.910000000
C     0.859000000    -0.456000000    -0.728000000
C     1.940000000    -1.027000000    -1.643000000
H     1.591000000    -1.687000000    -2.440000000
H     2.447000000    -0.203000000    -2.151000000
H     2.728000000    -1.631000000    -1.188000000
C    -0.458000000    -0.347000000    -1.158000000
H    -0.812000000    -0.550000000    -2.165000000
C    -1.431000000     0.172000000    -0.337000000
H    -2.456000000     0.341000000    -0.657000000
C    -1.143000000     0.537000000     1.000000000
C    -2.198000000     1.059000000     1.889000000
O    -3.239000000     1.409000000     1.334000000
O    -2.035000000     1.157000000     3.100000000
O    -1.899000000    -3.030000000     5.209000000
H    -2.466000000    -2.271000000     5.347000000
H    -1.080000000    -2.801000000     5.649000000
O     0.574000000    -0.312000000    -5.200000000
H    -0.148000000     0.118000000    -4.742000000
H     1.250000000    -0.423000000    -4.532000000
O     0.053000000     2.961000000    -1.047000000
H    -0.330000000     3.661000000    -0.517000000
H     0.095000000     2.210000000    -0.456000000
O    -3.463000000     4.816000000    -1.402000000
H    -4.225000000     4.803000000    -0.823000000
H    -3.827000000     4.966000000    -2.274000000
O    -1.338000000     5.015000000     0.255000000
H    -1.996000000     4.998000000    -0.440000000
H    -1.824000000     4.799000000     1.051000000
O     0.897000000    -2.114000000     5.460000000
H     1.826000000    -2.060000000     5.686000000
H     0.889000000    -2.410000000     4.550000000
O     1.359000000    -3.420000000     0.834000000
H     0.974000000    -3.427000000    -0.043000000
H     0.754000000    -2.894000000     1.357000000
O    -2.755000000    -2.597000000    -1.861000000
H    -2.266000000    -2.411000000    -2.663000000
H    -3.631000000    -2.249000000    -2.028000000
O     0.891000000    -5.176000000    -5.560000000
H     1.184000000    -5.332000000    -6.458000000
H     1.555000000    -4.595000000    -5.189000000
O     3.199000000    -3.740000000    -6.247000000
H     3.137000000    -3.505000000    -7.173000000
H     3.874000000    -3.159000000    -5.897000000
O     4.409000000    -2.265000000    -4.026000000
H     3.645000000    -2.829000000    -3.906000000
H     4.855000000    -2.284000000    -3.180000000
O     3.720000000     0.190000000     4.436000000
H     3.182000000    -0.351000000     3.858000000
H     3.190000000     0.971000000     4.595000000
O    -4.462000000    -1.095000000     1.682000000
H    -4.813000000    -1.114000000     2.572000000
H    -4.156000000    -0.196000000     1.565000000
O     4.705000000    -3.490000000    -1.019000000
H     5.181000000    -4.234000000    -1.388000000
H     4.329000000    -3.827000000    -0.205000000
O    -0.734000000    -3.299000000     2.676000000
H    -1.365000000    -3.157000000     1.971000000
H    -1.236000000    -3.156000000     3.479000000
O    -4.975000000     0.559000000     6.466000000
H    -5.157000000     1.017000000     7.287000000
H    -5.770000000     0.054000000     6.293000000
O    -2.488000000     5.261000000     3.013000000
H    -3.212000000     4.667000000     3.215000000
H    -2.859000000     6.136000000     3.121000000
O    -7.764000000     0.460000000     1.578000000
H    -7.953000000    -0.190000000     0.901000000
H    -8.393000000     0.272000000     2.274000000
O     2.543000000    -2.919000000     3.496000000
H     3.320000000    -3.472000000     3.417000000
H     2.053000000    -3.076000000     2.689000000
O    -0.369000000     3.150000000     6.517000000
H    -1.184000000     3.633000000     6.378000000
H    -0.599000000     2.237000000     6.347000000
O    -0.569000000     1.760000000    -3.708000000
H    -0.415000000     2.130000000    -2.839000000
H    -0.145000000     2.373000000    -4.309000000
O     5.100000000     1.702000000    -2.670000000
H     4.413000000     1.370000000    -3.248000000
H     5.886000000     1.715000000    -3.215000000
O    -0.084000000    -3.941000000    -1.509000000
H    -0.485000000    -4.610000000    -0.954000000
H    -0.820000000    -3.413000000    -1.819000000
O    -0.367000000     0.442000000     6.121000000
H    -1.200000000     0.093000000     5.805000000
H     0.231000000    -0.305000000     6.092000000
O    -3.279000000     4.843000000     6.104000000
H    -4.165000000     4.915000000     6.459000000
H    -3.334000000     4.133000000     5.465000000
O    -0.052000000     3.368000000     3.043000000
H    -0.659000000     2.642000000     3.189000000
H    -0.601000000     4.074000000     2.702000000
O     5.873000000     1.456000000     0.136000000
H     5.648000000     1.480000000    -0.794000000
H     5.859000000     0.527000000     0.362000000
O    -6.419000000     5.273000000    -0.910000000
H    -7.337000000     5.060000000    -1.080000000
H    -6.113000000     4.572000000    -0.335000000
O     2.566000000    -4.094000000    -3.061000000
H     1.691000000    -3.823000000    -2.784000000
H     2.919000000    -4.568000000    -2.308000000
O     3.442000000     2.491000000     0.396000000
H     4.389000000     2.622000000     0.356000000
H     3.233000000     2.008000000    -0.404000000
O    -5.059000000     3.323000000     0.642000000
H    -4.270000000     2.780000000     0.622000000
H    -5.562000000     2.987000000     1.384000000
O     3.145000000    -5.634000000     0.781000000
H     2.620000000    -4.906000000     1.114000000
H     3.913000000    -5.656000000     1.352000000
O     3.431000000     0.153000000    -4.325000000
H     3.900000000    -0.677000000    -4.413000000
H     3.768000000     0.695000000    -5.038000000
O    -2.390000000    -0.266000000    -4.142000000
H    -3.160000000    -0.014000000    -3.633000000
H    -1.945000000     0.561000000    -4.328000000
O    -4.883000000    -1.451000000    -3.159000000
H    -5.042000000    -0.896000000    -2.395000000
H    -5.518000000    -1.151000000    -3.809000000
O    -2.771000000    -0.514000000     4.961000000
H    -2.446000000     0.084000000     4.288000000
H    -3.540000000    -0.073000000     5.322000000
O    -2.467000000    -2.292000000    -5.867000000
H    -2.576000000    -1.501000000    -5.340000000
H    -1.578000000    -2.227000000    -6.216000000
O    -6.527000000     2.258000000     3.014000000
H    -7.199000000     2.225000000     3.695000000
H    -6.772000000     1.563000000     2.403000000
O    -2.569000000    -2.972000000     0.825000000
H    -3.060000000    -2.200000000     1.107000000
H    -2.552000000    -2.909000000    -0.130000000
O    -5.023000000     0.540000000    -0.791000000
H    -5.699000000     1.204000000    -0.650000000
H    -4.452000000     0.614000000    -0.026000000
O    -3.598000000     2.987000000     4.254000000
H    -4.333000000     2.589000000     3.786000000
H    -2.860000000     2.401000000     4.083000000
O     5.958000000    -1.261000000     0.726000000
H     6.127000000    -1.676000000     1.572000000
H     5.549000000    -1.948000000     0.200000000
O     1.372000000     4.424000000    -2.723000000
H     0.869000000     3.827000000    -2.169000000
H     1.146000000     4.169000000    -3.617000000
O     0.114000000    -1.680000000    -7.325000000
H     0.321000000    -1.091000000    -6.599000000
H     0.853000000    -1.587000000    -7.927000000
O     2.567000000     4.174000000     2.552000000
H     1.624000000     4.039000000     2.643000000
H     2.819000000     3.618000000     1.814000000
O     2.266000000     2.939000000     5.080000000
H     1.323000000     2.862000000     5.230000000
H     2.338000000     3.382000000     4.235000000
O     0.660000000     3.339000000    -5.381000000
H     0.395000000     3.198000000    -6.290000000
H     1.357000000     2.701000000    -5.232000000
O    -5.753000000    -3.261000000    -0.337000000
H    -5.179000000    -3.858000000     0.142000000
H    -5.442000000    -2.387000000    -0.099000000
