161
-3020.97317
C     0.823000000     1.059000000     0.604000000
H     1.539000000     1.782000000     0.987000000
C     1.049000000     0.507000000    -0.652000000
H     1.853000000     0.816000000    -1.315000000
C     0.140000000    -0.415000000    -1.135000000
C     0.459000000    -1.144000000    -2.442000000
H    -0.179000000    -0.693000000    -3.206000000
H     1.491000000    -0.860000000    -2.655000000
H     0.290000000    -2.222000000    -2.491000000
C    -0.917000000    -0.853000000    -0.397000000
H    -1.639000000    -1.500000000    -0.889000000
C    -1.116000000    -0.358000000     0.948000000
H    -2.003000000    -0.703000000     1.472000000
C    -0.274000000     0.634000000     1.450000000
C    -0.454000000     1.193000000     2.860000000
O    -1.318000000     0.740000000     3.546000000
O     0.258000000     2.013000000     3.320000000
O    -4.736000000     4.121000000     3.145000000
H    -4.816000000     3.632000000     3.964000000
H    -3.853000000     3.924000000     2.833000000
O    -5.530000000    -1.228000000    -4.117000000
H    -4.734000000    -1.713000000    -3.899000000
H    -6.082000000    -1.864000000    -4.571000000
O    -2.419000000     5.836000000     5.028000000
H    -1.669000000     5.788000000     5.621000000
H    -2.315000000     5.080000000     4.450000000
O    -0.238000000     2.121000000    -4.374000000
H     0.404000000     2.424000000    -5.016000000
H    -0.653000000     1.365000000    -4.789000000
O     4.426000000    -1.686000000     3.136000000
H     4.460000000    -2.221000000     3.928000000
H     3.641000000    -1.985000000     2.678000000
O    -4.362000000    -2.128000000     4.151000000
H    -3.418000000    -2.207000000     4.289000000
H    -4.527000000    -1.186000000     4.156000000
O     3.167000000     3.646000000     6.999000000
H     3.930000000     3.626000000     7.577000000
H     3.535000000     3.606000000     6.116000000
O    -6.082000000    -1.862000000    -1.028000000
H    -6.844000000    -2.143000000    -1.535000000
H    -5.883000000    -2.608000000    -0.462000000
O    -0.373000000    -2.645000000    -7.768000000
H    -1.011000000    -2.467000000    -7.076000000
H     0.438000000    -2.245000000    -7.454000000
O    -2.712000000     3.735000000    -4.588000000
H    -2.460000000     4.656000000    -4.526000000
H    -1.895000000     3.276000000    -4.784000000
O     3.963000000     0.946000000     3.514000000
H     4.539000000     0.238000000     3.803000000
H     4.556000000     1.674000000     3.325000000
O    -3.346000000    -3.559000000    -0.950000000
H    -2.701000000    -3.280000000    -0.301000000
H    -4.000000000    -4.043000000    -0.446000000
O     1.080000000    -0.737000000     7.571000000
H     0.866000000    -0.124000000     6.868000000
H     0.867000000    -0.264000000     8.375000000
O    -3.688000000     0.140000000     7.893000000
H    -4.521000000     0.253000000     7.435000000
H    -3.076000000    -0.136000000     7.212000000
O     2.593000000     4.742000000    -3.432000000
H     3.014000000     3.883000000    -3.445000000
H     1.725000000     4.578000000    -3.062000000
O    -5.439000000     1.943000000     0.894000000
H    -5.184000000     2.818000000     1.187000000
H    -5.051000000     1.859000000     0.023000000
O    -0.821000000    -0.030000000    -6.021000000
H    -1.497000000    -0.706000000    -6.075000000
H     0.003000000    -0.516000000    -6.014000000
O    -2.299000000    -2.376000000    -5.793000000
H    -2.647000000    -2.741000000    -4.980000000
H    -2.925000000    -2.647000000    -6.464000000
O     1.895000000    -1.798000000     1.054000000
H     2.655000000    -1.958000000     0.495000000
H     1.647000000    -0.892000000     0.868000000
O    -3.348000000    -3.561000000    -3.596000000
H    -3.552000000    -4.481000000    -3.767000000
H    -3.363000000    -3.486000000    -2.642000000
O     0.977000000    -2.429000000     5.070000000
H     1.370000000    -1.590000000     5.308000000
H     0.895000000    -2.900000000     5.899000000
O     0.655000000     5.416000000     1.812000000
H    -0.177000000     5.849000000     1.620000000
H     1.189000000     5.567000000     1.032000000
O    -3.993000000     0.725000000     4.436000000
H    -4.247000000     1.647000000     4.430000000
H    -3.050000000     0.735000000     4.271000000
O     4.181000000    -0.511000000    -4.412000000
H     4.263000000    -1.058000000    -5.193000000
H     4.873000000    -0.821000000    -3.828000000
O    -4.853000000     0.665000000    -1.726000000
H    -5.231000000     0.688000000    -2.605000000
H    -5.035000000    -0.220000000    -1.410000000
O     0.331000000    -5.931000000    -5.416000000
H     0.840000000    -5.392000000    -4.811000000
H     0.905000000    -6.668000000    -5.622000000
O     1.772000000    -0.817000000    -6.083000000
H     2.553000000    -1.271000000    -6.399000000
H     2.064000000    -0.356000000    -5.297000000
O    -0.365000000     5.698000000    -2.289000000
H    -0.250000000     4.748000000    -2.309000000
H    -0.929000000     5.887000000    -3.039000000
O    -1.959000000     3.898000000     2.883000000
H    -1.062000000     3.570000000     2.950000000
H    -2.079000000     4.075000000     1.950000000
O    -2.586000000     4.651000000    -0.050000000
H    -1.872000000     5.056000000    -0.542000000
H    -2.586000000     3.737000000    -0.337000000
O     3.945000000    -2.631000000    -0.997000000
H     3.859000000    -2.672000000    -1.949000000
H     4.839000000    -2.927000000    -0.825000000
O    -2.504000000    -3.420000000     1.702000000
H    -2.117000000    -2.867000000     2.380000000
H    -3.003000000    -4.079000000     2.186000000
O     5.247000000    -0.632000000     0.795000000
H     5.026000000     0.232000000     0.448000000
H     4.808000000    -0.668000000     1.644000000
O    -1.541000000     0.984000000     6.187000000
H    -1.604000000     1.889000000     6.493000000
H    -1.361000000     1.059000000     5.250000000
O    -1.559000000    -1.836000000     3.700000000
H    -1.675000000    -0.886000000     3.700000000
H    -0.611000000    -1.961000000     3.710000000
O     2.115000000     4.328000000     3.702000000
H     1.643000000     3.501000000     3.604000000
H     1.647000000     4.940000000     3.135000000
O     1.766000000     0.482000000     5.210000000
H     1.053000000     0.880000000     4.712000000
H     2.551000000     0.668000000     4.696000000
O     0.685000000     3.219000000     7.714000000
H     0.450000000     2.474000000     8.267000000
H     1.627000000     3.123000000     7.570000000
O    -1.300000000    -2.520000000     7.242000000
H    -1.043000000    -2.517000000     8.164000000
H    -1.028000000    -1.663000000     6.914000000
O     0.311000000     3.090000000    -1.954000000
H     0.140000000     2.619000000    -2.769000000
H     0.748000000     2.449000000    -1.394000000
O    -2.814000000     2.150000000    -0.523000000
H    -2.197000000     1.538000000    -0.123000000
H    -3.323000000     1.614000000    -1.131000000
O     0.233000000    -3.868000000     0.385000000
H    -0.474000000    -3.801000000     1.027000000
H     0.763000000    -3.084000000     0.528000000
O     2.713000000    -5.531000000    -3.439000000
H     2.820000000    -6.481000000    -3.488000000
H     3.503000000    -5.180000000    -3.850000000
O     4.675000000     3.739000000     4.569000000
H     5.096000000     4.593000000     4.664000000
H     3.878000000     3.919000000     4.070000000
O     3.454000000     2.034000000    -3.120000000
H     4.311000000     2.099000000    -2.700000000
H     3.561000000     1.347000000    -3.778000000
O    -6.317000000    -3.662000000     2.676000000
H    -6.859000000    -2.877000000     2.591000000
H    -5.445000000    -3.328000000     2.888000000
O     5.759000000     3.088000000    -1.989000000
H     6.627000000     2.780000000    -2.249000000
H     5.920000000     3.642000000    -1.225000000
O     0.830000000    -5.710000000    -1.289000000
H     1.582000000    -5.313000000    -1.727000000
H     0.502000000    -5.026000000    -0.706000000
