161
-3025.28644
C    -0.294000000    -0.625000000    -1.362000000
H    -0.245000000    -1.094000000    -2.341000000
C     0.634000000    -1.120000000    -0.403000000
H     1.297000000    -1.947000000    -0.644000000
C     0.816000000    -0.454000000     0.807000000
C     1.869000000    -0.894000000     1.789000000
H     2.762000000    -0.279000000     1.658000000
H     1.526000000    -0.667000000     2.801000000
H     2.193000000    -1.931000000     1.679000000
C    -0.065000000     0.563000000     1.129000000
H    -0.089000000     1.024000000     2.113000000
C    -1.023000000     1.019000000     0.230000000
H    -1.761000000     1.774000000     0.488000000
C    -1.143000000     0.479000000    -1.044000000
C    -2.048000000     1.136000000    -2.015000000
O    -2.629000000     2.202000000    -1.724000000
O    -1.798000000     0.814000000    -3.166000000
O     3.763000000    -0.491000000     5.251000000
H     3.559000000    -1.219000000     5.837000000
H     3.284000000     0.253000000     5.616000000
O     1.262000000    -1.098000000    -4.368000000
H     1.507000000    -1.864000000    -3.849000000
H     1.834000000    -0.400000000    -4.050000000
O    -2.065000000     4.785000000    -0.826000000
H    -2.474000000     5.278000000    -1.537000000
H    -2.110000000     3.872000000    -1.111000000
O     2.062000000    -3.997000000     3.453000000
H     1.493000000    -3.774000000     4.190000000
H     1.995000000    -4.948000000     3.378000000
O    -2.645000000    -2.084000000    -0.191000000
H    -2.321000000    -2.638000000     0.520000000
H    -1.856000000    -1.709000000    -0.581000000
O     0.091000000     5.260000000    -2.725000000
H     0.402000000     4.439000000    -2.345000000
H    -0.855000000     5.141000000    -2.813000000
O     3.683000000    -3.197000000     6.401000000
H     3.761000000    -3.506000000     5.498000000
H     4.587000000    -3.121000000     6.707000000
O     5.074000000    -0.830000000    -2.448000000
H     5.084000000    -1.640000000    -1.939000000
H     4.867000000    -1.109000000    -3.340000000
O     2.277000000    -2.560000000    -6.358000000
H     1.874000000    -3.314000000    -5.929000000
H     1.731000000    -1.817000000    -6.101000000
O    -4.627000000     0.149000000    -3.962000000
H    -3.999000000     0.720000000    -3.519000000
H    -4.131000000    -0.645000000    -4.160000000
O    -4.123000000    -0.171000000     4.476000000
H    -4.756000000    -0.882000000     4.383000000
H    -3.995000000     0.155000000     3.586000000
O     1.377000000     1.491000000     4.488000000
H     1.854000000     2.001000000     5.142000000
H     0.866000000     2.140000000     4.005000000
O    -3.841000000     6.545000000    -1.950000000
H    -4.066000000     6.967000000    -2.780000000
H    -4.545000000     5.912000000    -1.806000000
O    -0.189000000    -3.508000000     5.019000000
H    -0.099000000    -2.966000000     5.803000000
H    -0.864000000    -3.071000000     4.501000000
O    -1.932000000    -5.472000000    -1.873000000
H    -2.719000000    -4.928000000    -1.898000000
H    -1.500000000    -5.233000000    -1.053000000
O     0.783000000     3.904000000     3.238000000
H     0.363000000     3.867000000     2.379000000
H     1.089000000     4.808000000     3.317000000
O     0.992000000    -4.045000000    -2.383000000
H     0.553000000    -4.895000000    -2.381000000
H     0.933000000    -3.743000000    -1.477000000
O     0.419000000    -1.075000000     7.094000000
H     0.166000000    -0.233000000     6.717000000
H     0.874000000    -0.848000000     7.905000000
O     2.941000000    -5.509000000     0.328000000
H     2.128000000    -5.404000000     0.823000000
H     3.061000000    -6.456000000     0.264000000
O    -2.407000000     2.054000000    -6.195000000
H    -2.309000000     1.767000000    -5.287000000
H    -3.287000000     1.771000000    -6.443000000
O     0.407000000     2.060000000    -3.644000000
H    -0.330000000     1.480000000    -3.452000000
H     0.694000000     2.374000000    -2.786000000
O    -2.899000000     5.806000000     1.943000000
H    -2.934000000     5.546000000     1.022000000
H    -2.102000000     5.396000000     2.277000000
O     1.155000000     3.401000000    -5.884000000
H     0.843000000     2.936000000    -5.108000000
H     1.605000000     2.732000000    -6.399000000
O     7.482000000     1.643000000     1.787000000
H     7.286000000     1.239000000     0.942000000
H     6.625000000     1.868000000     2.150000000
O    -3.599000000    -3.078000000    -4.416000000
H    -3.499000000    -3.670000000    -5.162000000
H    -2.893000000    -2.439000000    -4.521000000
O     5.660000000    -1.345000000     2.018000000
H     6.507000000    -1.787000000     1.963000000
H     5.638000000    -0.774000000     1.250000000
O    -7.249000000     0.097000000    -3.027000000
H    -6.600000000    -0.574000000    -3.238000000
H    -6.731000000     0.845000000    -2.729000000
O     5.381000000    -5.271000000     1.499000000
H     5.139000000    -4.666000000     2.201000000
H     4.581000000    -5.370000000     0.982000000
O    -4.527000000     2.876000000     0.497000000
H    -3.809000000     2.974000000    -0.128000000
H    -4.549000000     1.939000000     0.691000000
O     4.694000000    -3.584000000     3.330000000
H     3.754000000    -3.760000000     3.346000000
H     4.769000000    -2.715000000     2.938000000
O     6.160000000     0.543000000    -0.345000000
H     6.064000000     1.496000000    -0.361000000
H     5.766000000     0.250000000    -1.167000000
O    -5.393000000    -1.370000000    -0.956000000
H    -4.461000000    -1.420000000    -0.741000000
H    -5.772000000    -0.838000000    -0.256000000
O    -5.548000000     1.209000000    -6.527000000
H    -5.566000000     0.370000000    -6.989000000
H    -5.457000000     0.972000000    -5.604000000
O    -4.218000000     3.837000000    -3.372000000
H    -3.653000000     3.131000000    -3.060000000
H    -4.995000000     3.786000000    -2.815000000
O    -1.514000000    -1.554000000    -4.645000000
H    -0.589000000    -1.727000000    -4.821000000
H    -1.513000000    -0.740000000    -4.141000000
O    -1.161000000     3.798000000     5.561000000
H    -0.617000000     3.759000000     4.775000000
H    -1.286000000     4.733000000     5.720000000
O     2.821000000     4.078000000     0.734000000
H     3.434000000     4.773000000     0.493000000
H     2.650000000     4.221000000     1.665000000
O     0.313000000    -4.324000000     0.957000000
H     0.938000000    -3.755000000     1.407000000
H    -0.470000000    -4.301000000     1.507000000
O     4.501000000     1.249000000     3.172000000
H     4.314000000     0.337000000     3.394000000
H     3.720000000     1.548000000     2.706000000
O     4.333000000    -4.552000000    -1.971000000
H     3.593000000    -4.731000000    -1.391000000
H     5.058000000    -5.053000000    -1.597000000
O    -3.674000000    -0.062000000     1.615000000
H    -3.072000000    -0.587000000     1.087000000
H    -4.523000000    -0.489000000     1.506000000
O    -1.384000000     4.545000000    -6.106000000
H    -1.818000000     3.693000000    -6.142000000
H    -0.468000000     4.338000000    -5.920000000
O     3.185000000     1.057000000    -3.816000000
H     3.533000000     0.751000000    -2.978000000
H     2.356000000     1.479000000    -3.592000000
O    -2.474000000    -1.311000000    -7.176000000
H    -2.721000000    -2.235000000    -7.138000000
H    -2.123000000    -1.121000000    -6.306000000
O    -0.464000000     1.787000000    -8.055000000
H    -0.898000000     1.604000000    -7.222000000
H    -0.938000000     1.254000000    -8.694000000
O    -6.050000000     4.605000000    -1.513000000
H    -5.974000000     4.209000000    -0.645000000
H    -6.907000000     5.031000000    -1.508000000
O     1.366000000     2.944000000    -1.306000000
H     2.003000000     3.401000000    -0.758000000
H     1.097000000     2.189000000    -0.783000000
O    -0.284000000     5.470000000     1.132000000
H     0.415000000     6.114000000     1.020000000
H    -0.819000000     5.558000000     0.343000000
