161
-3031.17685
C     1.451000000     0.200000000    -0.084000000
H     2.523000000     0.146000000    -0.256000000
C     0.574000000     0.299000000    -1.203000000
H     1.039000000     0.486000000    -2.168000000
C    -0.785000000     0.018000000    -0.950000000
C    -1.861000000     0.069000000    -2.033000000
H    -1.513000000     0.748000000    -2.814000000
H    -1.935000000    -0.855000000    -2.611000000
H    -2.844000000     0.330000000    -1.637000000
C    -1.203000000    -0.326000000     0.324000000
H    -2.263000000    -0.501000000     0.488000000
C    -0.326000000    -0.371000000     1.430000000
H    -0.692000000    -0.548000000     2.439000000
C     1.021000000    -0.049000000     1.234000000
C     2.024000000     0.135000000     2.328000000
O     1.577000000     0.122000000     3.452000000
O     3.207000000     0.089000000     2.053000000
O    -3.502000000     2.987000000    -0.480000000
H    -3.316000000     2.858000000    -1.410000000
H    -2.644000000     3.127000000    -0.081000000
O     2.789000000    -2.212000000     6.504000000
H     1.911000000    -2.436000000     6.196000000
H     3.231000000    -1.861000000     5.731000000
O    -4.315000000    -2.267000000    -3.399000000
H    -4.573000000    -2.470000000    -4.298000000
H    -4.899000000    -2.796000000    -2.856000000
O     3.962000000     2.006000000    -5.878000000
H     3.715000000     1.450000000    -6.618000000
H     3.308000000     1.813000000    -5.206000000
O    -1.626000000    -5.634000000     3.465000000
H    -1.943000000    -5.080000000     4.178000000
H    -1.023000000    -5.074000000     2.976000000
O     4.001000000    -1.308000000     4.369000000
H     4.869000000    -1.373000000     3.972000000
H     3.538000000    -0.668000000     3.828000000
O     1.904000000     1.922000000     5.646000000
H     1.814000000     1.107000000     5.152000000
H     1.331000000     1.807000000     6.404000000
O    -5.834000000    -0.403000000    -1.882000000
H    -5.095000000    -0.351000000    -2.488000000
H    -6.584000000    -0.615000000    -2.437000000
O    -1.747000000    -3.259000000    -4.527000000
H    -2.224000000    -4.014000000    -4.871000000
H    -2.233000000    -3.007000000    -3.742000000
O    -2.642000000     2.889000000    -3.494000000
H    -2.917000000     2.166000000    -4.059000000
H    -1.686000000     2.852000000    -3.507000000
O     0.079000000     3.457000000    -3.490000000
H     0.934000000     3.557000000    -3.072000000
H     0.096000000     4.073000000    -4.222000000
O     1.018000000     1.088000000    -5.136000000
H     0.212000000     0.717000000    -5.496000000
H     1.103000000     1.938000000    -5.568000000
O     5.012000000     2.251000000     3.339000000
H     5.012000000     1.744000000     4.151000000
H     4.284000000     1.892000000     2.832000000
O    -1.120000000    -0.918000000    -5.723000000
H    -0.450000000    -1.387000000    -6.221000000
H    -1.442000000    -1.561000000    -5.091000000
O    -3.136000000     1.303000000    -5.598000000
H    -2.674000000     0.472000000    -5.490000000
H    -2.709000000     1.719000000    -6.348000000
O     1.554000000     4.717000000     5.565000000
H     1.968000000     3.855000000     5.532000000
H     1.801000000     5.069000000     6.421000000
O    -4.107000000     5.678000000    -1.806000000
H    -4.948000000     5.854000000    -1.384000000
H    -3.857000000     4.810000000    -1.489000000
O     5.200000000     0.729000000     0.547000000
H     4.731000000     1.101000000    -0.200000000
H     4.527000000     0.604000000     1.215000000
O     4.657000000     2.012000000     6.641000000
H     4.997000000     1.122000000     6.726000000
H     3.936000000     1.935000000     6.017000000
O    -1.550000000     0.204000000     6.086000000
H    -0.855000000     0.606000000     6.608000000
H    -1.142000000    -0.572000000     5.701000000
O     2.881000000    -4.235000000     4.070000000
H     3.567000000    -4.554000000     4.656000000
H     3.327000000    -3.611000000     3.497000000
O    -5.197000000     3.563000000    -4.511000000
H    -4.466000000     3.534000000    -3.894000000
H    -4.837000000     3.212000000    -5.325000000
O    -3.027000000    -3.062000000     1.210000000
H    -2.152000000    -3.295000000     1.520000000
H    -3.436000000    -2.621000000     1.955000000
O     0.388000000    -4.244000000     2.627000000
H     0.848000000    -4.356000000     1.795000000
H     1.073000000    -4.322000000     3.291000000
O    -6.798000000    -2.368000000    -0.154000000
H    -6.470000000    -1.671000000    -0.723000000
H    -6.399000000    -3.166000000    -0.499000000
O     2.093000000     3.943000000    -1.696000000
H     2.342000000     3.559000000    -0.855000000
H     2.761000000     4.608000000    -1.862000000
O     7.870000000     0.543000000     0.981000000
H     6.923000000     0.560000000     0.843000000
H     8.173000000    -0.202000000     0.461000000
O     3.747000000    -1.990000000    -1.448000000
H     3.070000000    -2.104000000    -2.115000000
H     4.568000000    -2.166000000    -1.907000000
O    -5.055000000    -4.659000000    -0.191000000
H    -4.724000000    -5.554000000    -0.109000000
H    -4.523000000    -4.150000000     0.421000000
O     0.468000000    -1.639000000     5.043000000
H     0.910000000    -1.085000000     4.400000000
H     0.079000000    -2.344000000     4.525000000
O    -4.634000000     1.175000000     3.449000000
H    -4.771000000     1.416000000     2.533000000
H    -4.802000000     0.233000000     3.476000000
O     3.742000000    -2.494000000     1.154000000
H     3.727000000    -2.547000000     0.199000000
H     3.401000000    -1.622000000     1.351000000
O     0.227000000    -3.252000000    -0.275000000
H     0.137000000    -2.899000000    -1.160000000
H     0.196000000    -2.483000000     0.295000000
O    -0.480000000     1.797000000     3.707000000
H    -0.994000000     1.055000000     4.026000000
H     0.425000000     1.486000000     3.724000000
O    -4.879000000     0.802000000     0.728000000
H    -4.600000000     1.644000000     0.370000000
H    -4.986000000     0.239000000    -0.039000000
O    -1.465000000     3.789000000     2.132000000
H    -1.397000000     3.031000000     2.712000000
H    -1.142000000     3.475000000     1.287000000
O    -2.279000000    -3.611000000     5.110000000
H    -3.144000000    -3.235000000     5.274000000
H    -1.801000000    -3.480000000     5.929000000
O     6.540000000    -1.279000000    -2.202000000
H     7.249000000    -1.543000000    -1.616000000
H     5.790000000    -1.139000000    -1.623000000
O     5.105000000    -1.795000000    -4.950000000
H     4.250000000    -1.427000000    -4.725000000
H     5.714000000    -1.064000000    -4.849000000
O    -0.555000000     3.197000000    -0.319000000
H    -0.467000000     2.545000000    -1.015000000
H     0.316000000     3.588000000    -0.246000000
O    -5.315000000    -1.634000000     2.068000000
H    -4.703000000    -1.242000000     1.445000000
H    -6.142000000    -1.691000000     1.588000000
O     2.669000000    -1.094000000    -4.358000000
H     2.091000000    -0.418000000    -4.711000000
H     2.088000000    -1.669000000    -3.859000000
O     6.055000000    -2.182000000     2.803000000
H     6.666000000    -2.396000000     2.098000000
H     5.190000000    -2.353000000     2.431000000
O     1.512000000    -1.107000000     8.617000000
H     1.318000000    -1.977000000     8.966000000
H     1.715000000    -1.258000000     7.694000000
O    -1.326000000     5.573000000    -5.215000000
H    -1.394000000     5.738000000    -6.156000000
H    -1.615000000     4.666000000    -5.110000000
O     7.333000000     0.809000000     3.543000000
H     7.523000000     0.603000000     2.627000000
H     6.872000000     1.647000000     3.509000000
O     0.907000000    -2.944000000    -3.085000000
H     0.305000000    -2.935000000    -3.829000000
H     1.015000000    -3.872000000    -2.875000000
O     2.059000000     3.529000000     1.369000000
H     1.614000000     3.580000000     2.216000000
H     2.959000000     3.797000000     1.555000000
