161
-3030.21365
C     0.106000000    -0.662000000    -1.336000000
H     0.275000000    -1.326000000    -2.179000000
C     0.983000000    -0.767000000    -0.226000000
H     1.935000000    -1.269000000    -0.374000000
C     0.778000000    -0.147000000     0.944000000
C     1.714000000    -0.319000000     2.150000000
H     1.765000000    -1.372000000     2.437000000
H     2.719000000     0.020000000     1.890000000
H     1.274000000     0.237000000     2.980000000
C    -0.290000000     0.664000000     1.001000000
H    -0.421000000     1.229000000     1.921000000
C    -1.236000000     0.790000000    -0.024000000
H    -2.149000000     1.344000000     0.176000000
C    -1.025000000     0.183000000    -1.219000000
C    -1.961000000     0.367000000    -2.398000000
O    -2.989000000     0.952000000    -2.287000000
O    -1.470000000     0.072000000    -3.454000000
O    -3.599000000     0.981000000    -7.969000000
H    -4.415000000     0.521000000    -8.166000000
H    -3.635000000     1.140000000    -7.026000000
O     1.833000000    -2.864000000    -4.601000000
H     2.216000000    -3.225000000    -5.401000000
H     2.102000000    -3.471000000    -3.912000000
O    -1.597000000     3.837000000    -1.597000000
H    -1.741000000     4.583000000    -2.180000000
H    -1.390000000     3.110000000    -2.185000000
O     3.640000000    -4.739000000     4.302000000
H     2.908000000    -4.309000000     3.859000000
H     4.319000000    -4.067000000     4.352000000
O    -0.738000000    -4.721000000    -0.335000000
H    -0.708000000    -5.646000000    -0.090000000
H    -0.915000000    -4.728000000    -1.276000000
O     3.945000000    -2.467000000    -0.435000000
H     4.028000000    -2.299000000    -1.374000000
H     3.273000000    -3.146000000    -0.372000000
O     4.697000000    -2.051000000    -4.091000000
H     3.780000000    -1.966000000    -3.833000000
H     5.016000000    -1.150000000    -4.146000000
O    -5.174000000    -0.709000000    -2.471000000
H    -4.338000000    -0.246000000    -2.406000000
H    -4.968000000    -1.509000000    -2.955000000
O    -3.061000000    -0.337000000     2.142000000
H    -3.827000000    -0.904000000     2.230000000
H    -2.401000000    -0.890000000     1.724000000
O    -4.708000000     3.559000000     2.833000000
H    -5.580000000     3.931000000     2.963000000
H    -4.186000000     4.286000000     2.493000000
O     3.768000000    -0.277000000     6.975000000
H     4.440000000     0.310000000     7.325000000
H     3.082000000     0.309000000     6.654000000
O     1.236000000     0.654000000     6.079000000
H     0.893000000    -0.180000000     5.757000000
H     0.756000000     1.317000000     5.584000000
O     3.132000000    -6.319000000     2.106000000
H     3.446000000    -5.648000000     2.712000000
H     3.912000000    -6.829000000     1.888000000
O    -1.397000000    -3.062000000     4.162000000
H    -1.353000000    -2.923000000     3.216000000
H    -1.334000000    -2.183000000     4.536000000
O    -0.536000000    -5.089000000    -3.441000000
H     0.312000000    -5.526000000    -3.368000000
H    -0.787000000    -5.205000000    -4.357000000
O    -4.394000000    -1.785000000    -5.839000000
H    -3.747000000    -1.080000000    -5.859000000
H    -3.900000000    -2.556000000    -5.558000000
O     1.121000000     4.204000000     1.097000000
H     1.523000000     5.073000000     1.102000000
H     0.193000000     4.371000000     0.933000000
O     3.044000000    -4.575000000    -2.650000000
H     3.996000000    -4.536000000    -2.552000000
H     2.718000000    -4.719000000    -1.762000000
O    -3.144000000    -4.794000000    -4.315000000
H    -2.339000000    -4.990000000    -3.836000000
H    -3.598000000    -4.153000000    -3.768000000
O    -3.558000000     0.778000000    -5.178000000
H    -2.968000000     0.728000000    -4.427000000
H    -4.201000000     1.444000000    -4.933000000
O    -0.107000000     2.174000000    -3.957000000
H    -0.563000000     1.333000000    -3.980000000
H     0.465000000     2.115000000    -3.192000000
O    -3.431000000     4.889000000     0.078000000
H    -2.680000000     4.670000000    -0.473000000
H    -3.867000000     4.051000000     0.234000000
O     5.134000000    -1.138000000     2.446000000
H     5.031000000    -1.575000000     3.291000000
H     4.814000000    -1.775000000     1.807000000
O    -6.150000000    -0.076000000     0.646000000
H    -6.094000000    -0.091000000     1.602000000
H    -6.121000000    -0.998000000     0.391000000
O     0.625000000    -4.668000000     5.232000000
H    -0.023000000    -4.198000000     4.707000000
H     0.522000000    -4.313000000     6.115000000
O    -7.815000000     1.011000000    -1.649000000
H    -7.340000000     0.220000000    -1.395000000
H    -7.176000000     1.717000000    -1.546000000
O    -4.772000000     1.971000000    -0.561000000
H    -5.054000000     1.219000000    -0.041000000
H    -4.035000000     1.644000000    -1.076000000
O     4.905000000     1.203000000     3.864000000
H     4.208000000     1.695000000     3.430000000
H     4.941000000     0.371000000     3.392000000
O     7.727000000    -2.020000000     0.456000000
H     7.751000000    -2.897000000     0.839000000
H     6.930000000    -1.626000000     0.811000000
O    -1.656000000    -0.586000000     5.749000000
H    -2.297000000    -0.381000000     6.429000000
H    -1.592000000     0.217000000     5.230000000
O    -3.510000000    -2.931000000    -2.019000000
H    -3.662000000    -2.238000000    -1.376000000
H    -3.678000000    -3.743000000    -1.540000000
O    -6.573000000     0.058000000    -4.542000000
H    -6.310000000     0.265000000    -3.645000000
H    -5.749000000    -0.115000000    -4.999000000
O    -6.075000000     2.530000000    -5.814000000
H    -5.817000000     2.949000000    -4.993000000
H    -7.024000000     2.429000000    -5.743000000
O    -0.268000000    -1.123000000    -5.512000000
H     0.321000000    -1.731000000    -5.066000000
H    -0.738000000    -0.682000000    -4.804000000
O    -0.116000000     2.422000000     4.602000000
H    -0.957000000     2.575000000     4.172000000
H     0.275000000     3.293000000     4.679000000
O    -2.664000000     2.016000000     3.287000000
H    -2.789000000     1.134000000     2.936000000
H    -3.441000000     2.498000000     3.003000000
O     3.385000000     3.202000000     2.485000000
H     3.899000000     3.082000000     1.686000000
H     2.518000000     3.465000000     2.175000000
O     1.915000000    -4.646000000     0.083000000
H     1.981000000    -5.012000000     0.965000000
H     0.990000000    -4.738000000    -0.145000000
O     4.374000000    -2.190000000     4.977000000
H     5.314000000    -2.150000000     5.151000000
H     3.973000000    -1.756000000     5.730000000
O    -1.332000000    -2.427000000     1.178000000
H    -1.198000000    -1.862000000     0.417000000
H    -1.285000000    -3.316000000     0.828000000
O     0.004000000     3.700000000    -6.291000000
H    -0.400000000     3.089000000    -6.907000000
H    -0.231000000     3.362000000    -5.428000000
O     2.811000000     1.286000000    -5.295000000
H     2.049000000     0.709000000    -5.242000000
H     3.266000000     1.158000000    -4.463000000
O    -0.895000000     1.271000000    -7.225000000
H    -1.776000000     1.103000000    -7.559000000
H    -0.734000000     0.560000000    -6.604000000
O    -5.125000000     3.403000000    -3.325000000
H    -4.606000000     2.845000000    -2.746000000
H    -5.312000000     4.183000000    -2.803000000
O     5.410000000     0.380000000    -0.669000000
H     5.130000000    -0.494000000    -0.399000000
H     5.941000000     0.697000000     0.061000000
O    -3.523000000     6.058000000     2.474000000
H    -3.340000000     5.586000000     1.662000000
H    -2.694000000     6.481000000     2.697000000
O     3.780000000     1.125000000    -2.897000000
H     2.984000000     1.549000000    -2.577000000
H     4.303000000     0.974000000    -2.110000000
O     1.506000000     2.073000000    -1.222000000
H     1.405000000     2.919000000    -0.786000000
H     0.880000000     1.499000000    -0.781000000
