161
-3066.39578
C     0.150000000     0.559000000     1.349000000
H     0.197000000     0.837000000     2.399000000
C    -1.017000000    -0.049000000     0.909000000
H    -1.876000000    -0.137000000     1.571000000
C    -0.996000000    -0.634000000    -0.401000000
C    -2.094000000    -1.509000000    -0.903000000
H    -2.978000000    -1.363000000    -0.279000000
H    -2.293000000    -1.169000000    -1.921000000
H    -1.777000000    -2.554000000    -0.875000000
C     0.099000000    -0.403000000    -1.273000000
H     0.116000000    -0.878000000    -2.251000000
C     1.179000000     0.326000000    -0.827000000
H     2.093000000     0.423000000    -1.408000000
C     1.209000000     0.798000000     0.509000000
C     2.323000000     1.691000000     0.976000000
O     3.214000000     2.186000000     0.233000000
O     2.446000000     1.871000000     2.200000000
O    -1.849000000    -1.178000000     4.628000000
H    -2.273000000    -1.356000000     3.788000000
H    -1.320000000    -1.958000000     4.799000000
O     2.537000000    -5.540000000    -1.815000000
H     2.151000000    -4.669000000    -1.720000000
H     3.199000000    -5.586000000    -1.125000000
O    -4.520000000    -2.404000000     4.006000000
H    -5.372000000    -1.977000000     4.099000000
H    -4.194000000    -2.486000000     4.902000000
O    -4.114000000     0.644000000     1.360000000
H    -4.338000000     0.327000000     0.485000000
H    -4.681000000     0.145000000     1.948000000
O    -1.084000000    -5.088000000    -1.353000000
H    -0.252000000    -4.651000000    -1.168000000
H    -1.669000000    -4.383000000    -1.630000000
O    -5.147000000    -3.827000000     0.056000000
H    -5.277000000    -4.459000000    -0.651000000
H    -4.197000000    -3.728000000     0.117000000
O     7.423000000     1.620000000    -1.262000000
H     6.748000000     0.994000000    -1.525000000
H     7.909000000     1.171000000    -0.570000000
O     2.853000000     2.667000000     6.872000000
H     2.129000000     2.738000000     6.250000000
H     2.433000000     2.463000000     7.707000000
O     7.253000000     4.487000000     1.588000000
H     6.678000000     4.425000000     0.825000000
H     7.085000000     3.683000000     2.080000000
O     0.713000000     2.783000000     5.198000000
H    -0.184000000     2.479000000     5.334000000
H     0.832000000     2.761000000     4.249000000
O     6.717000000     4.135000000    -1.839000000
H     6.024000000     4.359000000    -1.218000000
H     6.947000000     3.231000000    -1.624000000
O    -3.019000000    -3.066000000    -3.392000000
H    -3.181000000    -2.133000000    -3.252000000
H    -3.826000000    -3.392000000    -3.790000000
O    -1.393000000    -1.783000000    -5.915000000
H    -1.554000000    -2.403000000    -5.204000000
H    -1.485000000    -0.922000000    -5.508000000
O    -2.620000000     1.055000000    -5.295000000
H    -2.140000000     1.328000000    -6.077000000
H    -3.466000000     1.498000000    -5.367000000
O     4.749000000     4.422000000     0.191000000
H     4.219000000     3.630000000     0.287000000
H     4.190000000     5.126000000     0.520000000
O    -2.277000000    -4.407000000     1.327000000
H    -2.197000000    -5.280000000     0.944000000
H    -2.627000000    -4.561000000     2.204000000
O     0.273000000    -3.269000000     5.118000000
H     0.483000000    -4.182000000     5.311000000
H     0.149000000    -3.246000000     4.169000000
O     5.209000000     0.037000000    -2.562000000
H     5.601000000    -0.598000000    -3.162000000
H     4.593000000     0.530000000    -3.104000000
O     0.651000000     4.243000000    -0.709000000
H     1.488000000     3.949000000    -0.351000000
H    -0.007000000     3.767000000    -0.202000000
O    -1.740000000     4.906000000     3.202000000
H    -1.649000000     5.486000000     3.958000000
H    -0.897000000     4.458000000     3.141000000
O     4.970000000     5.243000000     3.769000000
H     5.337000000     5.689000000     3.006000000
H     4.754000000     4.366000000     3.453000000
O     5.118000000     2.426000000     2.718000000
H     4.161000000     2.450000000     2.691000000
H     5.332000000     1.496000000     2.799000000
O    -4.177000000     3.039000000     3.134000000
H    -3.362000000     3.500000000     2.937000000
H    -4.199000000     2.313000000     2.510000000
O    -3.167000000    -7.099000000    -1.285000000
H    -2.700000000    -6.270000000    -1.175000000
H    -2.793000000    -7.675000000    -0.618000000
O    -4.628000000     0.968000000     5.068000000
H    -4.379000000     1.622000000     4.415000000
H    -5.449000000     0.602000000     4.740000000
O    -6.774000000    -1.980000000     1.337000000
H    -7.224000000    -2.229000000     2.144000000
H    -6.178000000    -2.708000000     1.160000000
O     4.229000000     0.850000000     5.468000000
H     3.712000000     1.617000000     5.716000000
H     5.133000000     1.163000000     5.459000000
O     6.231000000    -0.318000000     2.997000000
H     5.575000000    -0.927000000     3.337000000
H     5.916000000    -0.091000000     2.122000000
O    -0.739000000    -4.773000000    -5.138000000
H    -0.982000000    -5.036000000    -4.251000000
H     0.005000000    -5.334000000    -5.359000000
O     0.841000000     3.913000000     2.635000000
H     1.316000000     4.692000000     2.347000000
H     1.473000000     3.199000000     2.544000000
O     3.224000000    -0.470000000     3.165000000
H     2.886000000     0.326000000     2.756000000
H     3.339000000    -0.236000000     4.086000000
O    -2.052000000     2.614000000     0.082000000
H    -2.244000000     2.094000000     0.863000000
H    -1.904000000     1.966000000    -0.606000000
O    -5.824000000     0.038000000    -0.677000000
H    -6.341000000     0.738000000    -1.074000000
H    -6.465000000    -0.498000000    -0.210000000
O     1.583000000     6.619000000    -2.192000000
H     1.780000000     6.567000000    -3.128000000
H     1.250000000     5.750000000    -1.969000000
O    -4.351000000    -0.666000000    -3.772000000
H    -3.722000000    -0.108000000    -4.230000000
H    -4.652000000    -0.134000000    -3.036000000
O     3.039000000     1.172000000    -4.185000000
H     2.124000000     1.434000000    -4.085000000
H     3.372000000     1.728000000    -4.890000000
O    -7.688000000    -2.326000000    -2.476000000
H    -6.786000000    -2.019000000    -2.389000000
H    -7.920000000    -2.132000000    -3.384000000
O     3.784000000    -1.855000000    -1.037000000
H     4.095000000    -1.433000000    -1.838000000
H     3.953000000    -2.787000000    -1.175000000
O     2.393000000     5.954000000     1.364000000
H     2.261000000     6.379000000     0.516000000
H     2.409000000     6.676000000     1.993000000
O    -1.815000000     1.601000000    -2.870000000
H    -2.051000000     1.260000000    -3.732000000
H    -0.941000000     1.247000000    -2.703000000
O    -1.739000000     1.703000000     5.615000000
H    -1.692000000     0.753000000     5.515000000
H    -2.664000000     1.912000000     5.487000000
O     1.100000000    -3.294000000    -0.499000000
H     1.441000000    -2.462000000    -0.829000000
H     1.390000000    -3.328000000     0.412000000
O     2.879000000    -2.960000000     1.487000000
H     2.756000000    -2.293000000     2.162000000
H     3.470000000    -2.554000000     0.853000000
O     0.807000000     2.950000000    -3.423000000
H     0.183000000     3.552000000    -3.017000000
H     1.624000000     3.097000000    -2.946000000
O    -0.295000000    -2.945000000     2.268000000
H    -0.894000000    -3.618000000     1.944000000
H    -0.575000000    -2.143000000     1.828000000
O    -5.331000000    -1.590000000    -6.276000000
H    -4.974000000    -1.366000000    -5.416000000
H    -4.736000000    -1.173000000    -6.898000000
O     5.327000000     0.498000000     0.512000000
H     5.066000000     0.075000000    -0.305000000
H     4.755000000     1.263000000     0.579000000
O     3.136000000     3.748000000    -2.121000000
H     3.972000000     3.838000000    -2.578000000
H     3.289000000     3.057000000    -1.476000000
