161
-3042.76779
C     1.330000000     0.417000000     0.328000000
H     2.187000000     0.807000000     0.872000000
C     0.180000000     1.216000000     0.482000000
H     0.265000000     2.214000000     0.906000000
C    -1.031000000     0.696000000     0.027000000
C    -2.209000000     1.565000000     0.205000000
H    -2.391000000     2.019000000    -0.772000000
H    -3.067000000     0.953000000     0.493000000
H    -2.181000000     2.324000000     0.989000000
C    -1.072000000    -0.622000000    -0.451000000
H    -2.003000000    -1.076000000    -0.781000000
C     0.080000000    -1.411000000    -0.631000000
H     0.051000000    -2.462000000    -0.906000000
C     1.305000000    -0.841000000    -0.182000000
C     2.539000000    -1.716000000    -0.265000000
O     2.531000000    -2.919000000    -0.543000000
O     3.486000000    -1.161000000     0.222000000
O    -0.116000000     1.186000000    -2.716000000
H    -0.057000000     0.867000000    -1.816000000
H     0.612000000     0.760000000    -3.169000000
O     0.304000000     2.611000000    -5.328000000
H     1.196000000     2.934000000    -5.451000000
H     0.175000000     2.619000000    -4.379000000
O    -1.128000000    -4.629000000    -1.199000000
H    -2.011000000    -4.962000000    -1.037000000
H    -1.021000000    -3.917000000    -0.568000000
O    -4.212000000    -3.395000000     1.861000000
H    -4.214000000    -2.581000000     1.358000000
H    -3.968000000    -3.129000000     2.748000000
O    -5.470000000    -1.832000000    -0.138000000
H    -6.151000000    -1.584000000     0.486000000
H    -5.798000000    -2.634000000    -0.544000000
O    -5.884000000     2.884000000     2.366000000
H    -5.571000000     3.789000000     2.344000000
H    -6.037000000     2.662000000     1.447000000
O    -2.368000000    -0.625000000     3.267000000
H    -3.190000000    -0.331000000     2.875000000
H    -1.749000000     0.081000000     3.083000000
O    -5.637000000     2.539000000    -0.528000000
H    -5.540000000     1.741000000    -1.048000000
H    -5.176000000     3.210000000    -1.030000000
O    -1.048000000     6.230000000     3.415000000
H    -0.237000000     6.593000000     3.771000000
H    -1.208000000     5.444000000     3.937000000
O    -3.035000000    -5.693000000     0.761000000
H    -3.224000000    -4.800000000     1.048000000
H    -3.876000000    -6.147000000     0.820000000
O     3.105000000    -4.267000000    -4.788000000
H     3.755000000    -4.960000000    -4.909000000
H     2.845000000    -4.341000000    -3.870000000
O    -2.546000000     5.403000000    -3.051000000
H    -1.628000000     5.129000000    -3.052000000
H    -2.591000000     6.087000000    -2.383000000
O     4.929000000     0.846000000     1.351000000
H     4.538000000     0.088000000     0.916000000
H     4.673000000     1.592000000     0.808000000
O     4.019000000     3.023000000     0.040000000
H     4.804000000     3.553000000     0.178000000
H     3.998000000     2.869000000    -0.905000000
O     1.155000000     4.432000000     2.472000000
H     1.702000000     4.095000000     3.181000000
H     1.086000000     5.370000000     2.648000000
O    -0.285000000     4.067000000    -2.113000000
H    -0.260000000     3.110000000    -2.119000000
H     0.491000000     4.324000000    -1.615000000
O     8.647000000    -0.265000000     0.370000000
H     7.770000000    -0.577000000     0.594000000
H     9.072000000    -0.115000000     1.214000000
O    -2.464000000     3.234000000    -5.538000000
H    -2.889000000     2.595000000    -4.965000000
H    -1.532000000     3.156000000    -5.333000000
O    -0.513000000     1.498000000     3.460000000
H    -0.367000000     2.444000000     3.444000000
H    -0.113000000     1.208000000     4.279000000
O     0.021000000    -2.614000000     2.859000000
H     0.812000000    -2.171000000     3.166000000
H    -0.602000000    -1.906000000     2.695000000
O    -4.761000000     0.104000000    -1.877000000
H    -4.296000000    -0.569000000    -2.374000000
H    -4.986000000    -0.322000000    -1.050000000
O    -3.518000000    -1.676000000    -3.806000000
H    -4.276000000    -2.068000000    -4.238000000
H    -2.763000000    -2.060000000    -4.252000000
O     4.280000000    -3.948000000     1.229000000
H     3.678000000    -3.461000000     0.666000000
H     3.847000000    -3.969000000     2.082000000
O     6.437000000     0.647000000    -2.739000000
H     7.333000000     0.969000000    -2.833000000
H     5.927000000     1.421000000    -2.501000000
O    -0.675000000    -6.778000000     1.858000000
H    -1.629000000    -6.705000000     1.828000000
H    -0.360000000    -5.950000000     1.497000000
O    -3.051000000     2.157000000     4.996000000
H    -3.209000000     1.595000000     4.238000000
H    -2.885000000     1.548000000     5.715000000
O     5.734000000    -1.885000000    -1.112000000
H     5.023000000    -1.854000000    -0.472000000
H     5.500000000    -1.222000000    -1.761000000
O     0.479000000    -5.898000000    -3.062000000
H     1.306000000    -5.695000000    -2.626000000
H    -0.187000000    -5.472000000    -2.522000000
O     2.965000000    -1.874000000     2.890000000
H     3.873000000    -1.979000000     3.175000000
H     3.026000000    -1.378000000     2.074000000
O    -5.540000000     5.586000000     1.817000000
H    -5.188000000     5.201000000     1.014000000
H    -4.967000000     6.331000000     1.997000000
O    -4.786000000     0.297000000     2.803000000
H    -5.296000000     1.107000000     2.800000000
H    -5.209000000    -0.251000000     3.463000000
O    -2.628000000     1.083000000    -4.142000000
H    -3.037000000     0.219000000    -4.093000000
H    -1.805000000     0.987000000    -3.663000000
O    -6.067000000     1.615000000    -3.625000000
H    -5.696000000     2.494000000    -3.550000000
H    -5.533000000     1.080000000    -3.036000000
O     5.501000000    -4.454000000    -2.065000000
H     5.510000000    -3.529000000    -1.817000000
H     5.809000000    -4.914000000    -1.284000000
O     0.891000000    -2.568000000    -4.374000000
H     0.098000000    -2.415000000    -4.888000000
H     1.424000000    -3.145000000    -4.921000000
O     2.184000000     0.086000000    -3.954000000
H     3.004000000     0.371000000    -4.359000000
H     2.225000000    -0.870000000    -3.978000000
O    -3.565000000    -5.255000000    -2.720000000
H    -2.665000000    -5.131000000    -3.021000000
H    -3.604000000    -6.175000000    -2.457000000
O     4.027000000     1.875000000     3.901000000
H     3.783000000     2.762000000     4.166000000
H     4.117000000     1.925000000     2.950000000
O     1.879000000     4.783000000    -0.178000000
H     2.445000000     4.025000000    -0.034000000
H     1.444000000     4.921000000     0.664000000
O    -1.539000000     5.181000000     1.040000000
H    -0.856000000     4.521000000     1.154000000
H    -1.439000000     5.762000000     1.794000000
O     5.566000000    -1.872000000     3.571000000
H     6.327000000    -2.201000000     3.093000000
H     5.745000000    -0.940000000     3.693000000
O    -2.559000000     4.656000000     5.351000000
H    -2.824000000     3.802000000     5.009000000
H    -3.383000000     5.115000000     5.512000000
O     2.896000000    -4.944000000    -1.930000000
H     2.588000000    -4.291000000    -1.302000000
H     3.850000000    -4.901000000    -1.871000000
O     6.464000000    -5.785000000     0.371000000
H     6.033000000    -6.454000000     0.903000000
H     5.964000000    -4.986000000     0.539000000
O    -3.710000000     4.611000000    -0.487000000
H    -2.850000000     4.811000000    -0.118000000
H    -3.549000000     4.499000000    -1.424000000
O    -4.839000000     4.282000000    -3.869000000
H    -5.413000000     5.028000000    -3.698000000
H    -3.958000000     4.613000000    -3.698000000
O     2.424000000    -6.844000000     1.029000000
H     1.665000000    -7.237000000     1.461000000
H     2.155000000    -5.944000000     0.846000000
O     0.920000000    -4.493000000     1.213000000
H     0.598000000    -3.941000000     1.926000000
H     1.451000000    -3.904000000     0.676000000
