161
-3050.05429
C     1.384000000     0.230000000     0.274000000
H     2.384000000     0.457000000     0.633000000
C     0.322000000     0.815000000     0.947000000
H     0.642000000     1.557000000     1.674000000
C    -0.929000000     0.604000000     0.495000000
C    -2.105000000     1.203000000     1.297000000
H    -2.697000000     0.436000000     1.801000000
H    -1.767000000     1.891000000     2.075000000
H    -2.789000000     1.735000000     0.633000000
C    -1.149000000    -0.246000000    -0.613000000
H    -2.160000000    -0.428000000    -0.969000000
C    -0.106000000    -0.950000000    -1.131000000
H    -0.273000000    -1.583000000    -1.998000000
C     1.197000000    -0.743000000    -0.728000000
C     2.393000000    -1.482000000    -1.302000000
O     2.170000000    -2.500000000    -1.949000000
O     3.487000000    -0.994000000    -1.137000000
O    -0.131000000     2.124000000    -2.368000000
H    -0.257000000     1.698000000    -1.520000000
H     0.479000000     1.552000000    -2.834000000
O    -0.085000000    -4.087000000    -0.717000000
H     0.110000000    -3.281000000    -1.195000000
H    -0.793000000    -3.846000000    -0.119000000
O    -4.297000000    -1.951000000     2.623000000
H    -5.017000000    -1.438000000     2.258000000
H    -3.941000000    -2.430000000     1.875000000
O     2.736000000    -3.912000000    -6.739000000
H     1.936000000    -3.544000000    -6.363000000
H     3.088000000    -4.475000000    -6.050000000
O    -6.573000000    -0.958000000     0.485000000
H    -7.420000000    -0.784000000     0.075000000
H    -5.952000000    -0.427000000    -0.013000000
O    -7.463000000     2.844000000     2.244000000
H    -6.759000000     3.478000000     2.381000000
H    -7.706000000     2.950000000     1.324000000
O    -2.132000000    -0.453000000     5.105000000
H    -2.889000000     0.086000000     5.334000000
H    -2.450000000    -1.028000000     4.408000000
O    -5.101000000     2.867000000     0.259000000
H    -5.111000000     2.041000000    -0.224000000
H    -4.711000000     3.495000000    -0.349000000
O     0.100000000     1.753000000     5.449000000
H     0.325000000     1.998000000     6.346000000
H    -0.688000000     1.217000000     5.537000000
O    -3.715000000     4.720000000    -1.132000000
H    -3.544000000     5.644000000    -0.952000000
H    -2.871000000     4.372000000    -1.421000000
O     4.915000000     1.303000000     0.516000000
H     4.936000000     0.347000000     0.458000000
H     5.701000000     1.588000000     0.049000000
O     3.013000000     3.833000000    -0.035000000
H     3.382000000     2.963000000     0.117000000
H     3.696000000     4.437000000     0.257000000
O     0.582000000     3.658000000     3.217000000
H     0.420000000     3.034000000     3.924000000
H     0.876000000     4.453000000     3.662000000
O    -0.951000000     4.628000000    -1.793000000
H    -0.854000000     3.836000000    -2.321000000
H    -0.396000000     4.475000000    -1.028000000
O    -3.973000000    -1.292000000    -4.617000000
H    -4.143000000    -0.379000000    -4.386000000
H    -4.315000000    -1.794000000    -3.878000000
O     7.794000000    -2.166000000    -0.301000000
H     7.964000000    -1.437000000     0.297000000
H     7.303000000    -1.774000000    -1.023000000
O    -0.667000000     0.804000000    -5.426000000
H    -1.100000000     0.099000000    -5.906000000
H     0.199000000     0.454000000    -5.216000000
O     0.707000000    -2.140000000     3.255000000
H     0.043000000    -1.512000000     2.974000000
H     1.479000000    -1.605000000     3.444000000
O    -4.749000000     0.104000000    -1.319000000
H    -4.008000000     0.580000000    -1.693000000
H    -4.442000000    -0.800000000    -1.250000000
O     1.382000000    -3.406000000    -4.212000000
H     1.620000000    -3.086000000    -3.342000000
H     1.028000000    -2.637000000    -4.661000000
O     4.775000000    -2.063000000     1.180000000
H     4.241000000    -1.858000000     0.412000000
H     4.815000000    -3.019000000     1.194000000
O    -3.718000000     6.587000000     2.100000000
H    -3.717000000     7.258000000     2.783000000
H    -3.079000000     5.941000000     2.399000000
O     6.783000000     2.158000000    -1.453000000
H     7.662000000     2.526000000    -1.369000000
H     6.229000000     2.907000000    -1.672000000
O     4.424000000     0.603000000    -5.128000000
H     4.131000000     0.579000000    -6.039000000
H     5.361000000     0.411000000    -5.172000000
O     6.233000000    -0.471000000    -1.799000000
H     5.299000000    -0.550000000    -1.604000000
H     6.403000000     0.470000000    -1.779000000
O     6.354000000    -3.896000000    -4.581000000
H     5.551000000    -3.547000000    -4.195000000
H     6.069000000    -4.670000000    -5.068000000
O    -0.068000000    -6.785000000    -1.642000000
H     0.725000000    -7.156000000    -1.255000000
H    -0.095000000    -5.885000000    -1.316000000
O     2.726000000    -0.795000000     4.177000000
H     3.533000000    -0.765000000     3.662000000
H     2.936000000    -0.314000000     4.977000000
O    -4.229000000     3.045000000     3.519000000
H    -4.468000000     2.773000000     2.633000000
H    -3.459000000     3.600000000     3.399000000
O    -4.968000000     0.124000000     5.031000000
H    -5.221000000     1.025000000     4.829000000
H    -5.659000000    -0.412000000     4.642000000
O    -3.079000000     1.583000000    -3.329000000
H    -3.483000000     2.438000000    -3.479000000
H    -2.140000000     1.765000000    -3.290000000
O     1.861000000    -6.168000000    -4.820000000
H     2.508000000    -6.523000000    -4.211000000
H     1.572000000    -5.351000000    -4.414000000
O     5.058000000    -5.208000000    -2.297000000
H     5.411000000    -5.401000000    -3.166000000
H     5.830000000    -5.052000000    -1.754000000
O     4.538000000    -2.259000000    -3.550000000
H     4.399000000    -1.355000000    -3.831000000
H     3.861000000    -2.412000000    -2.890000000
O     2.046000000     0.701000000    -3.860000000
H     2.523000000     0.359000000    -4.616000000
H     2.709000000     0.775000000    -3.172000000
O     0.756000000    -1.676000000    -6.247000000
H     1.213000000    -1.570000000    -7.082000000
H    -0.169000000    -1.555000000    -6.464000000
O     6.941000000    -0.961000000    -4.794000000
H     6.891000000    -1.405000000    -3.947000000
H     7.840000000    -1.104000000    -5.087000000
O    -1.783000000    -1.274000000    -6.517000000
H    -2.304000000    -1.485000000    -5.743000000
H    -2.372000000    -1.433000000    -7.254000000
O    -2.476000000    -3.705000000     0.954000000
H    -2.472000000    -4.132000000     1.810000000
H    -2.919000000    -4.328000000     0.378000000
O     4.961000000     1.882000000     3.708000000
H     5.075000000     2.819000000     3.552000000
H     5.214000000     1.469000000     2.883000000
O     0.607000000     4.592000000     0.471000000
H     1.463000000     4.241000000     0.228000000
H     0.532000000     4.414000000     1.409000000
O    -2.190000000     4.725000000     2.888000000
H    -1.370000000     4.310000000     2.617000000
H    -2.147000000     4.738000000     3.844000000
O     5.609000000    -1.042000000     3.511000000
H     5.301000000    -1.299000000     2.641000000
H     6.281000000    -1.689000000     3.727000000
O     3.386000000    -4.129000000    -0.399000000
H     2.836000000    -3.590000000    -0.967000000
H     3.916000000    -4.650000000    -1.003000000
O    -5.874000000     5.235000000     1.215000000
H    -5.306000000     5.779000000     1.760000000
H    -5.302000000     4.537000000     0.895000000
O    -4.768000000     3.610000000    -3.474000000
H    -5.009000000     4.234000000    -4.160000000
H    -4.648000000     4.149000000    -2.693000000
O    -3.968000000    -2.500000000    -1.016000000
H    -3.303000000    -2.795000000    -0.394000000
H    -4.303000000    -3.306000000    -1.408000000
O     1.517000000    -4.571000000     2.012000000
H     1.168000000    -3.724000000     2.290000000
H     1.771000000    -4.436000000     1.099000000
