161
-3048.24916
C     0.551000000     0.641000000     1.234000000
H     0.797000000     1.175000000     2.149000000
C    -0.525000000     1.124000000     0.479000000
H    -1.012000000     2.064000000     0.725000000
C    -0.929000000     0.417000000    -0.675000000
C    -2.005000000     0.961000000    -1.554000000
H    -2.330000000     0.229000000    -2.296000000
H    -2.922000000     1.103000000    -0.978000000
H    -1.676000000     1.846000000    -2.103000000
C    -0.306000000    -0.751000000    -1.040000000
H    -0.586000000    -1.284000000    -1.945000000
C     0.723000000    -1.260000000    -0.190000000
H     1.015000000    -2.276000000    -0.441000000
C     1.168000000    -0.557000000     0.908000000
C     2.339000000    -1.025000000     1.723000000
O     3.112000000    -1.827000000     1.183000000
O     2.584000000    -0.576000000     2.821000000
O     1.081000000     4.241000000    -3.892000000
H     1.159000000     3.500000000    -4.492000000
H     1.286000000     3.875000000    -3.031000000
O     2.480000000    -4.310000000     1.927000000
H     3.011000000    -3.520000000     1.826000000
H     1.597000000    -4.037000000     1.677000000
O     5.598000000    -4.657000000     0.816000000
H     5.726000000    -3.893000000     1.378000000
H     6.347000000    -5.222000000     1.006000000
O    -0.676000000    -4.595000000    -3.983000000
H     0.080000000    -5.028000000    -3.587000000
H    -0.395000000    -4.392000000    -4.875000000
O    -4.648000000    -0.971000000     0.165000000
H    -5.374000000    -0.736000000     0.743000000
H    -3.884000000    -1.001000000     0.740000000
O    -5.040000000     1.996000000     0.144000000
H    -5.062000000     1.313000000     0.814000000
H    -4.964000000     1.518000000    -0.682000000
O    -1.904000000     0.838000000     3.482000000
H    -1.647000000     1.752000000     3.361000000
H    -1.345000000     0.523000000     4.191000000
O     4.486000000     2.939000000     5.911000000
H     3.817000000     3.414000000     6.404000000
H     4.005000000     2.244000000     5.462000000
O    -4.103000000     4.914000000     0.644000000
H    -4.231000000     3.981000000     0.816000000
H    -4.289000000     5.013000000    -0.290000000
O    -3.449000000    -1.553000000    -5.121000000
H    -3.725000000    -2.149000000    -4.425000000
H    -3.052000000    -2.122000000    -5.781000000
O    -1.409000000     3.779000000    -5.176000000
H    -1.267000000     2.943000000    -4.732000000
H    -0.665000000     4.320000000    -4.913000000
O     1.339000000     3.800000000     3.277000000
H     1.217000000     3.453000000     4.161000000
H     2.007000000     3.235000000     2.889000000
O    -1.716000000    -4.397000000    -1.052000000
H    -1.587000000    -4.594000000    -1.980000000
H    -2.460000000    -4.941000000    -0.793000000
O    -7.326000000     3.536000000     0.324000000
H    -6.578000000     2.939000000     0.285000000
H    -7.929000000     3.123000000     0.942000000
O     3.523000000    -1.856000000    -4.115000000
H     3.285000000    -0.929000000    -4.121000000
H     3.503000000    -2.103000000    -3.190000000
O     3.015000000     2.344000000     1.710000000
H     3.011000000     2.135000000     0.776000000
H     3.469000000     1.607000000     2.119000000
O     1.388000000     3.133000000    -1.472000000
H     1.474000000     3.842000000    -0.835000000
H     0.731000000     2.549000000    -1.094000000
O     6.048000000     1.407000000     0.879000000
H     5.212000000     1.308000000     0.424000000
H     6.606000000     0.724000000     0.506000000
O     3.871000000    -3.247000000     6.158000000
H     4.265000000    -3.965000000     6.654000000
H     3.075000000    -3.623000000     5.784000000
O     1.747000000    -6.338000000     3.369000000
H     2.174000000    -5.731000000     2.765000000
H     1.471000000    -5.790000000     4.104000000
O    -0.357000000     0.549000000     5.912000000
H     0.400000000     0.002000000     5.700000000
H    -0.004000000     1.437000000     5.960000000
O     5.236000000    -1.319000000     4.970000000
H     4.705000000    -2.050000000     5.287000000
H     5.368000000    -1.505000000     4.041000000
O    -4.014000000     3.076000000    -4.544000000
H    -3.172000000     3.368000000    -4.894000000
H    -4.242000000     2.313000000    -5.075000000
O     5.793000000    -1.758000000     2.128000000
H     4.952000000    -1.303000000     2.066000000
H     6.346000000    -1.327000000     1.476000000
O     4.079000000    -4.968000000    -1.362000000
H     4.614000000    -5.670000000    -1.730000000
H     4.255000000    -5.001000000    -0.421000000
O    -0.152000000    -2.371000000     3.385000000
H    -0.153000000    -2.914000000     2.596000000
H    -0.198000000    -2.998000000     4.107000000
O     1.364000000     2.282000000    -5.767000000
H     0.692000000     1.654000000    -5.502000000
H     1.236000000     2.385000000    -6.711000000
O    -1.382000000     0.744000000    -5.056000000
H    -2.016000000     0.077000000    -4.794000000
H    -0.919000000     0.356000000    -5.799000000
O     3.034000000     0.996000000     4.876000000
H     3.078000000     0.539000000     4.035000000
H     2.582000000     0.385000000     5.457000000
O    -1.984000000     3.689000000     3.843000000
H    -1.436000000     4.279000000     4.361000000
H    -2.689000000     3.434000000     4.438000000
O    -3.994000000     4.656000000    -2.204000000
H    -4.067000000     3.964000000    -2.861000000
H    -3.088000000     4.958000000    -2.274000000
O    -4.764000000     1.733000000     3.549000000
H    -4.939000000     1.770000000     4.489000000
H    -3.834000000     1.515000000     3.488000000
O     1.661000000    -1.279000000     5.130000000
H     0.925000000    -1.842000000     4.886000000
H     2.259000000    -1.331000000     4.385000000
O    -0.186000000     6.422000000     3.091000000
H    -0.373000000     5.823000000     2.368000000
H     0.457000000     7.035000000     2.735000000
O    -3.954000000     0.873000000    -6.372000000
H    -3.300000000     0.806000000    -7.067000000
H    -3.865000000     0.057000000    -5.880000000
O     3.687000000     1.279000000    -0.800000000
H     2.959000000     1.781000000    -1.166000000
H     3.755000000     0.509000000    -1.365000000
O    -4.594000000    -1.713000000    -2.341000000
H    -5.373000000    -2.265000000    -2.270000000
H    -4.407000000    -1.444000000    -1.442000000
O    -1.525000000     4.494000000     1.179000000
H    -2.398000000     4.870000000     1.070000000
H    -1.581000000     3.987000000     1.989000000
O    -2.167000000    -1.175000000     1.668000000
H    -1.270000000    -1.176000000     1.336000000
H    -2.174000000    -0.490000000     2.336000000
O    -3.316000000    -4.200000000    -3.896000000
H    -3.676000000    -3.752000000    -3.130000000
H    -2.368000000    -4.130000000    -3.791000000
O    -6.259000000    -1.392000000    -5.126000000
H    -5.312000000    -1.490000000    -5.026000000
H    -6.597000000    -2.287000000    -5.103000000
O     4.206000000    -2.193000000    -1.380000000
H     4.536000000    -3.065000000    -1.164000000
H     3.771000000    -1.896000000    -0.580000000
O    -0.412000000    -4.210000000     1.306000000
H    -0.891000000    -3.859000000     0.555000000
H    -0.415000000    -5.158000000     1.169000000
O     6.636000000    -1.474000000    -2.203000000
H     7.001000000    -1.287000000    -3.068000000
H     5.690000000    -1.383000000    -2.316000000
O    -1.178000000     6.049000000    -1.162000000
H    -1.684000000     6.793000000    -0.835000000
H    -0.829000000     5.632000000    -0.375000000
O     1.480000000     5.221000000     0.519000000
H     1.351000000     4.761000000     1.348000000
H     1.757000000     6.101000000     0.773000000
O    -5.090000000     0.829000000    -3.133000000
H    -4.160000000     0.618000000    -3.052000000
H    -5.521000000    -0.020000000    -3.221000000
O     1.808000000    -5.730000000    -2.977000000
H     2.399000000    -5.377000000    -2.312000000
H     1.158000000    -6.227000000    -2.480000000
