161
-3040.51153
C     0.412000000     0.455000000     1.356000000
H     0.666000000     1.023000000     2.247000000
C    -0.812000000     0.767000000     0.685000000
H    -1.530000000     1.441000000     1.146000000
C    -1.085000000     0.189000000    -0.492000000
C    -2.251000000     0.614000000    -1.294000000
H    -2.652000000     1.559000000    -0.922000000
H    -2.133000000     0.702000000    -2.376000000
H    -3.012000000    -0.152000000    -1.134000000
C    -0.139000000    -0.569000000    -1.125000000
H    -0.320000000    -0.853000000    -2.159000000
C     1.080000000    -0.864000000    -0.561000000
H     1.785000000    -1.465000000    -1.129000000
C     1.348000000    -0.393000000     0.706000000
C     2.576000000    -0.738000000     1.504000000
O     3.181000000    -1.738000000     1.156000000
O     2.890000000     0.029000000     2.391000000
O     6.338000000    -6.104000000     1.853000000
H     7.180000000    -5.786000000     1.527000000
H     5.690000000    -5.528000000     1.448000000
O    -5.775000000     2.448000000     0.577000000
H    -5.086000000     3.105000000     0.476000000
H    -5.328000000     1.687000000     0.948000000
O     1.047000000    -4.425000000    -0.822000000
H     0.874000000    -3.955000000    -0.006000000
H     1.012000000    -5.350000000    -0.578000000
O    -4.538000000     0.261000000     2.109000000
H    -4.575000000     1.076000000     2.611000000
H    -4.021000000    -0.332000000     2.653000000
O    -4.954000000     1.087000000    -6.427000000
H    -5.866000000     0.933000000    -6.675000000
H    -4.803000000     0.496000000    -5.690000000
O    -6.467000000    -0.700000000     0.753000000
H    -5.866000000    -0.916000000     0.040000000
H    -5.896000000    -0.461000000     1.483000000
O     0.687000000     2.529000000     6.264000000
H     0.732000000     1.707000000     5.775000000
H    -0.209000000     2.561000000     6.598000000
O    -1.967000000     0.809000000     3.820000000
H    -1.933000000     0.221000000     3.065000000
H    -1.052000000     0.916000000     4.082000000
O    -0.552000000     4.023000000     3.128000000
H     0.291000000     3.586000000     3.245000000
H    -0.656000000     4.094000000     2.180000000
O    -2.563000000    -2.562000000    -3.715000000
H    -2.677000000    -3.439000000    -4.082000000
H    -1.629000000    -2.380000000    -3.814000000
O     0.536000000     2.205000000    -3.686000000
H     0.814000000     2.086000000    -2.778000000
H     0.043000000     1.411000000    -3.892000000
O     4.172000000     2.202000000     1.639000000
H     5.065000000     1.900000000     1.474000000
H     3.690000000     1.409000000     1.872000000
O     6.662000000     0.485000000     1.430000000
H     7.214000000     0.346000000     0.661000000
H     7.239000000     0.312000000     2.174000000
O     2.058000000     2.185000000    -0.997000000
H     2.878000000     1.718000000    -1.158000000
H     1.567000000     1.611000000    -0.408000000
O    -2.989000000     0.805000000     6.305000000
H    -2.337000000     0.223000000     6.695000000
H    -2.685000000     0.939000000     5.407000000
O     6.862000000    -0.282000000    -2.923000000
H     7.558000000    -0.097000000    -2.292000000
H     6.171000000    -0.693000000    -2.404000000
O     5.820000000    -2.252000000     5.495000000
H     6.001000000    -3.190000000     5.426000000
H     5.544000000    -1.995000000     4.616000000
O    -2.142000000     0.798000000    -6.996000000
H    -3.069000000     1.027000000    -6.929000000
H    -2.097000000     0.192000000    -7.736000000
O     2.917000000    -3.225000000     3.623000000
H     3.083000000    -2.427000000     3.120000000
H     3.556000000    -3.854000000     3.289000000
O    -3.497000000     4.268000000     0.649000000
H    -3.523000000     4.156000000     1.600000000
H    -2.565000000     4.338000000     0.442000000
O    -0.129000000     2.756000000    -6.291000000
H    -0.724000000     2.100000000    -6.655000000
H    -0.040000000     2.512000000    -5.369000000
O     5.691000000    -2.411000000     2.511000000
H     5.273000000    -2.962000000     1.850000000
H     5.626000000    -1.523000000     2.159000000
O     5.270000000    -4.470000000    -1.568000000
H     4.702000000    -5.132000000    -1.963000000
H     6.141000000    -4.665000000    -1.913000000
O     1.648000000    -3.273000000     6.060000000
H     2.054000000    -2.635000000     6.647000000
H     2.061000000    -3.114000000     5.211000000
O     4.442000000    -4.084000000     0.978000000
H     4.672000000    -4.349000000     0.087000000
H     3.809000000    -3.376000000     0.862000000
O    -6.656000000     4.583000000    -2.789000000
H    -7.237000000     4.792000000    -2.057000000
H    -5.870000000     4.227000000    -2.376000000
O     1.677000000    -4.197000000    -3.534000000
H     1.218000000    -4.304000000    -2.700000000
H     2.044000000    -3.314000000    -3.493000000
O     4.636000000     0.354000000     4.321000000
H     4.148000000     0.027000000     3.566000000
H     4.335000000     1.256000000     4.429000000
O     2.027000000     3.121000000     3.903000000
H     1.774000000     2.772000000     4.758000000
H     2.886000000     3.516000000     4.050000000
O    -0.970000000     4.112000000     0.102000000
H    -0.823000000     3.257000000    -0.303000000
H    -0.178000000     4.611000000    -0.098000000
O    -6.914000000    -1.831000000    -3.741000000
H    -6.112000000    -1.390000000    -4.019000000
H    -6.695000000    -2.763000000    -3.765000000
O     7.502000000     0.458000000     4.302000000
H     8.035000000    -0.336000000     4.358000000
H     6.638000000     0.189000000     4.615000000
O    -1.824000000     4.717000000     5.274000000
H    -1.487000000     4.112000000     4.613000000
H    -1.072000000     5.262000000     5.506000000
O     0.979000000     0.236000000     4.600000000
H     0.671000000    -0.670000000     4.579000000
H     1.729000000     0.248000000     4.006000000
O    -4.482000000    -0.969000000    -4.679000000
H    -4.716000000    -1.715000000    -5.231000000
H    -3.614000000    -1.186000000    -4.339000000
O     3.839000000     1.009000000    -4.223000000
H     4.265000000     0.206000000    -4.522000000
H     3.455000000     1.386000000    -5.014000000
O    -4.127000000    -3.753000000    -1.298000000
H    -3.719000000    -3.376000000    -2.078000000
H    -3.957000000    -4.693000000    -1.369000000
O     2.026000000     4.042000000     1.105000000
H     2.660000000     3.742000000     1.757000000
H     2.098000000     3.407000000     0.392000000
O    -0.985000000     0.000000000    -4.683000000
H    -0.408000000    -0.541000000    -5.222000000
H    -1.840000000    -0.063000000    -5.108000000
O    -0.533000000    -2.051000000     3.914000000
H    -0.311000000    -2.335000000     3.027000000
H    -1.081000000    -2.756000000     4.261000000
O    -1.580000000    -2.593000000     1.012000000
H    -1.338000000    -2.168000000     0.190000000
H    -0.758000000    -2.951000000     1.347000000
O     0.207000000    -2.734000000    -5.853000000
H     0.525000000    -2.967000000    -6.726000000
H     1.001000000    -2.607000000    -5.335000000
O    -3.330000000    -2.096000000     3.054000000
H    -2.809000000    -2.181000000     2.255000000
H    -3.020000000    -2.803000000     3.619000000
O     4.711000000    -1.598000000    -1.325000000
H     4.974000000    -2.495000000    -1.535000000
H     4.135000000    -1.689000000    -0.566000000
O     0.651000000    -3.848000000     2.000000000
H     0.677000000    -4.804000000     1.994000000
H     1.473000000    -3.588000000     2.416000000
O     4.318000000     1.152000000    -1.617000000
H     4.118000000     1.253000000    -2.548000000
H     4.461000000     0.212000000    -1.504000000
O    -4.027000000     2.620000000     3.349000000
H    -3.258000000     2.070000000     3.500000000
H    -4.026000000     3.240000000     4.078000000
O     2.363000000    -1.435000000    -4.334000000
H     2.944000000    -1.768000000    -5.018000000
H     2.593000000    -0.509000000    -4.254000000
