161
-3029.80693
C     0.519000000     1.381000000     0.200000000
H     0.892000000     2.381000000     0.406000000
C    -0.060000000     0.592000000     1.182000000
H    -0.159000000     0.982000000     2.192000000
C    -0.540000000    -0.683000000     0.859000000
C    -1.111000000    -1.416000000     2.002000000
H    -0.396000000    -1.700000000     2.777000000
H    -1.965000000    -0.831000000     2.350000000
H    -1.501000000    -2.370000000     1.641000000
C    -0.407000000    -1.197000000    -0.410000000
H    -0.792000000    -2.200000000    -0.570000000
C     0.122000000    -0.429000000    -1.437000000
H     0.211000000    -0.834000000    -2.442000000
C     0.606000000     0.851000000    -1.130000000
C     1.315000000     1.643000000    -2.248000000
O     1.355000000     1.156000000    -3.371000000
O     1.919000000     2.682000000    -2.002000000
O     2.380000000     0.495000000     3.362000000
H     1.437000000     0.362000000     3.460000000
H     2.462000000     1.384000000     3.018000000
O    -3.932000000    -0.749000000    -2.511000000
H    -4.450000000    -1.508000000    -2.243000000
H    -4.573000000    -0.140000000    -2.880000000
O    -0.371000000     4.198000000    -6.025000000
H    -0.503000000     5.081000000    -6.371000000
H     0.459000000     4.249000000    -5.550000000
O    -4.378000000    -3.429000000     2.429000000
H    -5.025000000    -2.724000000     2.416000000
H    -3.945000000    -3.373000000     1.578000000
O     0.820000000    -0.879000000     5.859000000
H     0.715000000    -1.529000000     5.165000000
H     0.429000000    -1.288000000     6.631000000
O     2.602000000    -2.340000000     3.927000000
H     3.102000000    -2.671000000     3.181000000
H     2.903000000    -1.438000000     4.036000000
O    -5.993000000    -0.962000000     2.732000000
H    -6.294000000    -0.751000000     1.848000000
H    -6.654000000    -0.576000000     3.308000000
O    -1.899000000    -5.131000000    -0.275000000
H    -1.208000000    -5.177000000    -0.936000000
H    -2.221000000    -6.029000000    -0.202000000
O     3.875000000     2.120000000     4.865000000
H     3.158000000     2.478000000     4.341000000
H     4.123000000     1.314000000     4.412000000
O    -0.733000000     1.154000000    -8.014000000
H    -0.676000000     2.106000000    -7.934000000
H    -0.526000000     0.827000000    -7.138000000
O    -0.800000000    -5.180000000    -2.835000000
H    -1.168000000    -4.343000000    -3.119000000
H    -1.119000000    -5.813000000    -3.478000000
O     0.916000000     4.819000000     5.097000000
H     0.684000000     3.975000000     5.482000000
H     1.147000000     5.369000000     5.845000000
O     4.355000000     1.460000000    -5.185000000
H     4.125000000     2.292000000    -4.772000000
H     3.516000000     1.082000000    -5.447000000
O    -2.427000000     4.200000000     2.192000000
H    -3.028000000     4.701000000     2.744000000
H    -1.824000000     4.854000000     1.838000000
O     0.805000000     5.617000000     0.613000000
H     1.652000000     5.932000000     0.928000000
H     0.431000000     5.149000000     1.359000000
O    -5.461000000    -0.654000000     5.869000000
H    -4.504000000    -0.645000000     5.844000000
H    -5.680000000    -1.465000000     6.328000000
O     5.673000000     4.040000000    -3.063000000
H     5.719000000     4.893000000    -2.631000000
H     4.745000000     3.924000000    -3.266000000
O     2.471000000    -2.912000000    -3.495000000
H     2.384000000    -3.495000000    -2.741000000
H     2.827000000    -2.102000000    -3.131000000
O     0.775000000    -3.734000000     5.512000000
H     1.416000000    -3.425000000     4.872000000
H     1.254000000    -4.373000000     6.041000000
O     1.797000000    -5.152000000    -1.625000000
H     1.903000000    -6.103000000    -1.619000000
H     0.997000000    -5.003000000    -2.129000000
O     0.396000000     4.927000000    -1.857000000
H     0.850000000     4.087000000    -1.789000000
H     0.500000000     5.326000000    -0.994000000
O     3.051000000     4.046000000    -0.156000000
H     2.649000000     3.433000000    -0.772000000
H     2.631000000     4.885000000    -0.345000000
O    -1.664000000     2.396000000     4.069000000
H    -2.532000000     2.083000000     4.323000000
H    -1.837000000     3.119000000     3.466000000
O     5.665000000    -0.926000000    -5.093000000
H     6.219000000    -0.841000000    -4.317000000
H     4.921000000    -0.350000000    -4.921000000
O     2.021000000    -0.476000000    -5.886000000
H     1.099000000    -0.259000000    -5.748000000
H     2.206000000    -1.156000000    -5.239000000
O     2.465000000     3.561000000    -4.811000000
H     2.799000000     4.313000000    -4.321000000
H     2.154000000     2.956000000    -4.139000000
O    -0.344000000     7.346000000    -3.269000000
H     0.177000000     7.992000000    -2.792000000
H    -0.070000000     6.503000000    -2.906000000
O     2.437000000     3.080000000     2.578000000
H     2.145000000     3.891000000     2.993000000
H     2.514000000     3.300000000     1.649000000
O    -3.308000000     4.084000000    -0.898000000
H    -3.552000000     3.335000000    -0.355000000
H    -2.740000000     4.612000000    -0.336000000
O     3.431000000     5.759000000    -3.357000000
H     3.156000000     6.323000000    -4.080000000
H     3.699000000     6.366000000    -2.667000000
O     2.555000000    -3.200000000     0.343000000
H     1.928000000    -3.073000000     1.054000000
H     2.107000000    -3.781000000    -0.272000000
O     3.426000000    -0.546000000    -2.871000000
H     4.130000000    -0.067000000    -2.434000000
H     2.799000000     0.130000000    -3.127000000
O    -4.067000000     1.186000000     2.108000000
H    -3.223000000     1.219000000     2.559000000
H    -4.460000000     0.362000000     2.397000000
O    -2.463000000     2.654000000    -5.383000000
H    -1.862000000     3.309000000    -5.739000000
H    -2.974000000     3.129000000    -4.727000000
O    -0.395000000     0.268000000    -5.135000000
H     0.288000000     0.628000000    -4.570000000
H    -1.079000000     0.938000000    -5.142000000
O     2.829000000     0.204000000    -8.284000000
H     3.700000000     0.002000000    -7.944000000
H     2.258000000     0.168000000    -7.516000000
O     3.896000000    -0.503000000     0.931000000
H     3.331000000    -0.534000000     1.703000000
H     3.357000000    -0.858000000     0.225000000
O    -5.602000000     3.074000000     1.060000000
H    -5.091000000     2.315000000     1.342000000
H    -6.435000000     2.706000000     0.765000000
O    -1.711000000    -3.478000000     4.579000000
H    -1.565000000    -3.682000000     3.655000000
H    -0.832000000    -3.415000000     4.953000000
O     0.444000000     2.047000000     5.968000000
H     0.664000000     1.116000000     5.941000000
H    -0.449000000     2.092000000     5.626000000
O    -2.755000000    -1.198000000     5.463000000
H    -2.198000000    -1.198000000     6.241000000
H    -2.549000000    -2.021000000     5.020000000
O    -4.607000000    -4.785000000     4.806000000
H    -3.788000000    -4.666000000     5.286000000
H    -4.458000000    -4.352000000     3.965000000
O    -0.721000000    -4.626000000     2.114000000
H    -1.156000000    -4.730000000     1.267000000
H     0.135000000    -5.037000000     1.995000000
O    -2.307000000    -1.480000000    -4.768000000
H    -2.733000000    -1.070000000    -4.015000000
H    -1.522000000    -0.952000000    -4.917000000
O     5.389000000     2.837000000     0.589000000
H     5.599000000     2.951000000     1.516000000
H     4.755000000     3.528000000     0.400000000
O    -6.847000000     0.181000000     0.386000000
H    -5.916000000     0.154000000     0.168000000
H    -7.216000000    -0.593000000    -0.040000000
O    -5.118000000    -3.518000000    -2.180000000
H    -5.458000000    -3.682000000    -3.059000000
H    -4.434000000    -4.177000000    -2.061000000
O     5.268000000     0.566000000    -1.210000000
H     5.703000000     1.334000000    -0.841000000
H     4.616000000     0.321000000    -0.554000000
