161
-2987.84625
C     1.236000000     0.801000000    -0.041000000
H     2.241000000     1.197000000     0.083000000
C     0.597000000     0.341000000     1.111000000
H     0.923000000     0.553000000     2.126000000
C    -0.535000000    -0.479000000     0.962000000
C    -1.136000000    -1.049000000     2.202000000
H    -0.378000000    -1.297000000     2.948000000
H    -1.729000000    -0.263000000     2.674000000
H    -1.785000000    -1.920000000     2.090000000
C    -1.137000000    -0.621000000    -0.266000000
H    -2.040000000    -1.209000000    -0.408000000
C    -0.468000000    -0.160000000    -1.369000000
H    -0.900000000    -0.177000000    -2.366000000
C     0.759000000     0.484000000    -1.272000000
C     1.377000000     1.017000000    -2.512000000
O     0.829000000     0.789000000    -3.570000000
O     2.148000000     1.993000000    -2.395000000
O     4.470000000     2.922000000     3.603000000
H     4.416000000     3.028000000     4.552000000
H     4.847000000     3.744000000     3.290000000
O    -6.315000000     1.685000000     0.010000000
H    -5.615000000     1.667000000     0.662000000
H    -6.213000000     2.530000000    -0.428000000
O    -0.719000000    -3.238000000    -2.915000000
H    -0.532000000    -4.175000000    -2.975000000
H     0.113000000    -2.813000000    -3.122000000
O     5.102000000    -1.363000000    -4.138000000
H     4.473000000    -1.267000000    -4.853000000
H     4.983000000    -0.575000000    -3.607000000
O    -2.851000000    -4.048000000     7.334000000
H    -1.982000000    -4.138000000     7.726000000
H    -2.682000000    -3.728000000     6.449000000
O    -5.443000000    -2.674000000    -0.444000000
H    -5.330000000    -2.137000000     0.339000000
H    -4.585000000    -2.663000000    -0.868000000
O    -1.626000000    -0.653000000    -7.924000000
H    -1.771000000    -1.475000000    -7.457000000
H    -0.793000000    -0.327000000    -7.584000000
O     0.805000000    -4.672000000     0.078000000
H     1.276000000    -5.133000000    -0.617000000
H    -0.120000000    -4.830000000    -0.115000000
O    -5.473000000     0.901000000    -4.832000000
H    -4.976000000     0.715000000    -4.035000000
H    -4.804000000     1.048000000    -5.502000000
O     1.958000000     4.103000000    -0.680000000
H     2.798000000     4.546000000    -0.801000000
H     1.970000000     3.391000000    -1.319000000
O    -3.804000000    -1.482000000    -3.868000000
H    -3.020000000    -1.696000000    -4.374000000
H    -3.976000000    -2.268000000    -3.348000000
O     0.504000000     0.193000000    -6.363000000
H     1.323000000    -0.084000000    -6.773000000
H     0.771000000     0.563000000    -5.521000000
O    -1.020000000     5.411000000     4.358000000
H    -0.502000000     4.816000000     3.817000000
H    -1.324000000     4.869000000     5.087000000
O    -6.557000000    -1.764000000    -2.744000000
H    -5.895000000    -1.609000000    -3.417000000
H    -6.075000000    -1.715000000    -1.918000000
O     0.707000000     3.403000000     3.797000000
H     1.222000000     4.042000000     3.304000000
H     1.352000000     2.925000000     4.318000000
O     0.988000000     6.354000000    -5.598000000
H     0.372000000     6.838000000    -5.047000000
H     1.668000000     6.058000000    -4.994000000
O    -3.599000000    -2.100000000     3.942000000
H    -2.981000000    -2.831000000     3.925000000
H    -3.979000000    -2.128000000     4.820000000
O     2.866000000     2.943000000     5.953000000
H     3.362000000     3.672000000     6.327000000
H     2.414000000     2.552000000     6.700000000
O     4.986000000    -0.152000000    -0.131000000
H     4.869000000     0.092000000     0.787000000
H     4.306000000    -0.805000000    -0.295000000
O     2.026000000    -4.937000000     2.474000000
H     1.606000000    -5.794000000     2.546000000
H     1.717000000    -4.588000000     1.638000000
O    -1.764000000     0.886000000    -4.446000000
H    -0.925000000     0.884000000    -3.985000000
H    -1.589000000     0.420000000    -5.263000000
O     4.458000000     0.714000000     2.216000000
H     4.548000000     1.527000000     2.713000000
H     3.602000000     0.371000000     2.471000000
O     3.079000000    -2.110000000    -5.877000000
H     3.339000000    -2.948000000    -6.259000000
H     2.964000000    -1.528000000    -6.628000000
O    -4.363000000     1.458000000     7.443000000
H    -4.996000000     0.918000000     6.970000000
H    -3.558000000     1.388000000     6.929000000
O     6.525000000     2.945000000    -4.060000000
H     5.940000000     2.744000000    -3.330000000
H     6.668000000     2.103000000    -4.492000000
O    -2.925000000     2.952000000    -2.963000000
H    -2.579000000     2.233000000    -3.492000000
H    -2.347000000     3.690000000    -3.155000000
O    -0.460000000     6.206000000    -0.216000000
H    -0.291000000     6.613000000    -1.066000000
H     0.154000000     5.473000000    -0.175000000
O     1.940000000    -3.567000000     5.093000000
H     1.732000000    -4.412000000     5.491000000
H     2.136000000    -3.774000000     4.179000000
O     4.187000000     0.424000000     6.808000000
H     3.559000000     0.570000000     6.101000000
H     3.715000000     0.672000000     7.603000000
O    -3.249000000    -3.643000000    -1.998000000
H    -2.412000000    -3.245000000    -2.236000000
H    -3.035000000    -4.557000000    -1.810000000
O    -2.143000000     3.294000000     0.003000000
H    -2.821000000     3.159000000    -0.659000000
H    -1.452000000     2.675000000    -0.232000000
O    -1.714000000    -4.148000000     3.940000000
H    -1.054000000    -4.142000000     3.246000000
H    -1.775000000    -5.066000000     4.204000000
O    -1.733000000     2.544000000     2.750000000
H    -0.915000000     2.898000000     3.098000000
H    -1.675000000     2.693000000     1.806000000
O     3.464000000     6.356000000    -1.169000000
H     3.110000000     6.849000000    -0.428000000
H     4.305000000     6.774000000    -1.354000000
O    -1.075000000     3.156000000    -6.296000000
H    -0.727000000     3.270000000    -5.412000000
H    -0.406000000     2.644000000    -6.752000000
O     3.144000000    -1.922000000    -0.688000000
H     2.395000000    -2.066000000    -0.110000000
H     2.791000000    -2.032000000    -1.570000000
O     2.467000000    -1.073000000     4.183000000
H     2.302000000    -1.937000000     4.561000000
H     1.716000000    -0.545000000     4.454000000
O     3.271000000     2.749000000    -5.552000000
H     2.936000000     2.705000000    -4.656000000
H     2.518000000     3.025000000    -6.076000000
O     0.535000000     3.642000000    -4.021000000
H     1.212000000     4.271000000    -3.773000000
H     0.744000000     2.854000000    -3.519000000
O     2.824000000     5.499000000    -3.677000000
H     3.693000000     5.439000000    -4.075000000
H     2.974000000     5.936000000    -2.839000000
O    -2.511000000     1.288000000     5.271000000
H    -1.965000000     1.748000000     4.634000000
H    -2.493000000     0.374000000     4.985000000
O     2.272000000    -1.936000000     7.589000000
H     1.335000000    -1.943000000     7.786000000
H     2.318000000    -2.050000000     6.640000000
O     1.932000000    -2.137000000    -3.381000000
H     2.328000000    -2.307000000    -4.235000000
H     1.533000000    -1.272000000    -3.469000000
O    -4.354000000    -1.125000000     1.683000000
H    -4.208000000    -0.183000000     1.773000000
H    -4.116000000    -1.487000000     2.537000000
O     5.078000000    -1.643000000     3.637000000
H     5.263000000    -1.880000000     4.546000000
H     4.209000000    -1.244000000     3.665000000
O    -4.344000000     1.443000000     2.188000000
H    -4.720000000     1.296000000     3.056000000
H    -3.639000000     2.073000000     2.337000000
O     0.485000000    -0.094000000     5.791000000
H    -0.114000000    -0.584000000     6.355000000
H     0.477000000     0.794000000     6.148000000
O     4.759000000     1.712000000    -2.380000000
H     3.813000000     1.741000000    -2.528000000
H     4.857000000     1.249000000    -1.548000000
