161
-3019.77325
C     0.956000000     1.101000000    -0.263000000
H     1.558000000     2.001000000    -0.356000000
C     0.445000000     0.774000000     0.923000000
H     0.703000000     1.357000000     1.803000000
C    -0.417000000    -0.284000000     1.111000000
C    -0.980000000    -0.603000000     2.475000000
H    -1.850000000    -1.254000000     2.369000000
H    -0.196000000    -0.947000000     3.153000000
H    -1.409000000     0.326000000     2.856000000
C    -0.793000000    -1.025000000    -0.009000000
H    -1.412000000    -1.902000000     0.163000000
C    -0.358000000    -0.669000000    -1.283000000
H    -0.721000000    -1.316000000    -2.077000000
C     0.570000000     0.381000000    -1.409000000
C     1.135000000     0.674000000    -2.790000000
O     0.872000000    -0.166000000    -3.636000000
O     1.893000000     1.549000000    -3.030000000
O     3.624000000     4.605000000     2.018000000
H     4.452000000     5.084000000     2.052000000
H     3.025000000     5.124000000     2.554000000
O    -1.664000000    -5.891000000    -0.372000000
H    -1.123000000    -6.670000000    -0.242000000
H    -1.827000000    -5.562000000     0.512000000
O    -6.616000000    -1.501000000     1.970000000
H    -5.872000000    -1.993000000     1.623000000
H    -7.168000000    -1.331000000     1.207000000
O    -1.407000000    -3.682000000    -2.843000000
H    -1.334000000    -4.584000000    -3.157000000
H    -0.540000000    -3.306000000    -2.992000000
O     5.111000000    -2.713000000    -5.086000000
H     4.635000000    -3.521000000    -4.895000000
H     4.545000000    -2.017000000    -4.753000000
O     0.933000000    -2.555000000     5.101000000
H     0.711000000    -3.248000000     5.724000000
H     0.178000000    -1.967000000     5.118000000
O     5.989000000     0.594000000    -5.249000000
H     5.073000000     0.433000000    -5.478000000
H     6.088000000     0.211000000    -4.377000000
O     0.228000000    -3.941000000    -6.038000000
H    -0.666000000    -4.237000000    -6.209000000
H     0.771000000    -4.712000000    -6.203000000
O    -4.093000000    -2.831000000     1.392000000
H    -3.877000000    -2.302000000     0.624000000
H    -4.429000000    -3.651000000     1.032000000
O     1.395000000    -4.527000000    -0.849000000
H     0.667000000    -4.402000000    -0.240000000
H     0.992000000    -4.483000000    -1.717000000
O    -4.094000000     1.099000000    -5.379000000
H    -4.537000000     0.334000000    -5.011000000
H    -3.277000000     1.163000000    -4.885000000
O     1.534000000     3.965000000    -2.446000000
H     2.335000000     4.343000000    -2.084000000
H     1.776000000     3.068000000    -2.678000000
O     3.782000000     5.193000000    -1.653000000
H     4.604000000     4.772000000    -1.403000000
H     3.871000000     6.095000000    -1.344000000
O     3.174000000     1.371000000    -7.591000000
H     3.895000000     1.494000000    -8.207000000
H     2.441000000     1.082000000    -8.134000000
O     0.005000000     3.402000000     3.655000000
H     0.149000000     2.510000000     3.971000000
H    -0.946000000     3.507000000     3.658000000
O    -4.766000000    -1.938000000     4.427000000
H    -5.346000000    -2.022000000     3.669000000
H    -5.029000000    -2.651000000     5.009000000
O    -6.128000000     0.784000000     3.731000000
H    -5.572000000     1.251000000     3.108000000
H    -6.261000000    -0.077000000     3.335000000
O     6.126000000    -0.572000000    -0.986000000
H     5.499000000     0.149000000    -1.050000000
H     6.425000000    -0.710000000    -1.885000000
O     1.521000000     5.453000000    -0.158000000
H     2.462000000     5.276000000    -0.152000000
H     1.188000000     4.951000000    -0.901000000
O    -0.087000000     0.146000000    -6.303000000
H     0.226000000    -0.035000000    -5.417000000
H     0.123000000    -0.646000000    -6.798000000
O     6.010000000     3.883000000    -1.225000000
H     6.915000000     3.619000000    -1.393000000
H     5.864000000     3.664000000    -0.305000000
O     1.073000000    -1.947000000    -7.654000000
H     0.480000000    -2.495000000    -7.140000000
H     1.813000000    -2.520000000    -7.857000000
O    -0.805000000     0.298000000     7.512000000
H    -0.690000000     0.128000000     8.447000000
H    -1.579000000    -0.210000000     7.270000000
O    -0.848000000     2.228000000    -8.120000000
H    -0.530000000     1.550000000    -7.524000000
H    -0.290000000     2.148000000    -8.894000000
O    -1.714000000     0.954000000    -4.068000000
H    -1.037000000     1.416000000    -4.563000000
H    -1.268000000     0.184000000    -3.714000000
O    -2.404000000     1.962000000     0.477000000
H    -1.750000000     1.290000000     0.288000000
H    -3.042000000     1.881000000    -0.233000000
O    -4.153000000    -2.903000000    -2.452000000
H    -3.264000000    -3.143000000    -2.711000000
H    -4.050000000    -2.080000000    -1.975000000
O    -3.508000000     1.546000000    -1.901000000
H    -3.652000000     2.489000000    -1.980000000
H    -3.011000000     1.312000000    -2.685000000
O    -0.132000000     0.985000000     4.989000000
H    -0.767000000     0.492000000     4.469000000
H    -0.302000000     0.717000000     5.892000000
O    -2.479000000     4.622000000     1.204000000
H    -2.313000000     4.706000000     2.143000000
H    -2.454000000     3.680000000     1.039000000
O    -2.333000000     2.764000000     6.650000000
H    -1.582000000     2.171000000     6.630000000
H    -2.989000000     2.302000000     7.172000000
O     4.066000000    -3.875000000    -2.034000000
H     3.176000000    -3.795000000    -1.691000000
H     3.950000000    -4.204000000    -2.925000000
O    -0.116000000    -4.106000000     1.536000000
H    -0.878000000    -3.832000000     2.046000000
H     0.569000000    -3.481000000     1.774000000
O     4.514000000     2.123000000     1.245000000
H     5.338000000     2.053000000     1.726000000
H     3.955000000     2.661000000     1.804000000
O     3.701000000    -0.569000000    -4.078000000
H     3.880000000    -0.020000000    -3.315000000
H     2.791000000    -0.375000000    -4.303000000
O     1.982000000     2.886000000    -5.612000000
H     2.435000000     2.328000000    -6.245000000
H     1.962000000     2.368000000    -4.807000000
O    -2.779000000    -0.183000000     5.088000000
H    -3.497000000    -0.602000000     4.615000000
H    -2.908000000    -0.444000000     6.000000000
O    -2.844000000     3.255000000     3.729000000
H    -2.797000000     3.348000000     4.681000000
H    -2.926000000     2.312000000     3.585000000
O     0.989000000     5.765000000     2.679000000
H     0.879000000     5.750000000     1.728000000
H     0.852000000     4.858000000     2.950000000
O    -1.643000000    -3.358000000     6.300000000
H    -2.007000000    -3.446000000     5.419000000
H    -1.304000000    -4.229000000     6.507000000
O     3.619000000    -2.175000000     4.933000000
H     4.006000000    -2.848000000     4.373000000
H     2.676000000    -2.336000000     4.885000000
O     1.155000000    -3.167000000    -3.579000000
H     0.963000000    -3.579000000    -4.421000000
H     1.166000000    -2.229000000    -3.769000000
O    -4.322000000    -0.620000000    -0.492000000
H    -4.142000000     0.062000000    -1.140000000
H    -4.662000000    -0.145000000     0.266000000
O    -2.192000000    -3.714000000     3.243000000
H    -2.868000000    -3.236000000     2.762000000
H    -2.592000000    -4.561000000     3.439000000
O    -0.982000000     4.397000000    -3.435000000
H    -0.128000000     4.212000000    -3.043000000
H    -0.824000000     5.149000000    -4.006000000
O    -4.972000000     2.086000000     1.536000000
H    -5.263000000     2.962000000     1.789000000
H    -4.035000000     2.183000000     1.370000000
O     2.353000000     0.283000000     5.933000000
H     2.560000000    -0.610000000     5.658000000
H     1.716000000     0.591000000     5.288000000
O     4.387000000     1.679000000    -2.334000000
H     3.478000000     1.604000000    -2.623000000
H     4.502000000     2.610000000    -2.143000000
