161
-3070.19782
C     0.366000000     0.297000000    -1.353000000
H     0.591000000     0.379000000    -2.413000000
C    -0.484000000    -0.747000000    -0.915000000
H    -0.727000000    -1.598000000    -1.545000000
C    -0.796000000    -0.883000000     0.416000000
C    -1.424000000    -2.199000000     0.743000000
H    -2.379000000    -2.234000000     0.214000000
H    -0.819000000    -2.973000000     0.266000000
H    -1.499000000    -2.353000000     1.821000000
C    -0.390000000     0.100000000     1.318000000
H    -0.674000000    -0.005000000     2.361000000
C     0.453000000     1.167000000     0.920000000
H     0.779000000     1.923000000     1.631000000
C     0.847000000     1.259000000    -0.403000000
C     1.752000000     2.350000000    -0.909000000
O     2.066000000     3.254000000    -0.145000000
O     2.330000000     2.257000000    -2.012000000
O     3.470000000     5.250000000    -1.336000000
H     4.371000000     4.926000000    -1.348000000
H     2.964000000     4.537000000    -0.947000000
O    -3.217000000     2.533000000    -2.690000000
H    -3.215000000     3.462000000    -2.923000000
H    -3.109000000     2.524000000    -1.739000000
O    -0.971000000     3.908000000    -0.912000000
H    -0.066000000     4.136000000    -0.699000000
H    -1.219000000     4.529000000    -1.597000000
O     3.309000000     7.531000000    -2.879000000
H     3.241000000     6.667000000    -2.474000000
H     3.554000000     7.352000000    -3.786000000
O     0.662000000    -5.308000000     2.279000000
H     0.785000000    -4.435000000     2.653000000
H     0.709000000    -5.899000000     3.030000000
O     4.500000000     2.036000000     0.584000000
H     5.050000000     2.378000000    -0.121000000
H     3.653000000     2.463000000     0.456000000
O    -4.301000000    -2.649000000    -2.100000000
H    -3.595000000    -2.195000000    -2.559000000
H    -4.893000000    -1.951000000    -1.821000000
O    -1.295000000     5.507000000     1.945000000
H    -1.083000000     5.987000000     1.144000000
H    -0.509000000     4.993000000     2.131000000
O    -1.087000000     5.417000000    -3.181000000
H    -1.526000000     6.157000000    -3.601000000
H    -0.704000000     4.923000000    -3.906000000
O    -3.564000000     3.752000000     2.426000000
H    -2.692000000     4.147000000     2.408000000
H    -3.505000000     3.014000000     1.819000000
O     1.710000000     6.632000000     4.127000000
H     1.577000000     5.846000000     3.597000000
H     1.246000000     6.452000000     4.944000000
O     0.873000000    -0.077000000     6.585000000
H     0.830000000     0.745000000     6.095000000
H     1.206000000     0.175000000     7.446000000
O     3.075000000     6.822000000     0.912000000
H     3.175000000     6.444000000     0.039000000
H     2.374000000     6.310000000     1.316000000
O    -4.035000000     0.989000000     4.355000000
H    -4.253000000     0.307000000     3.720000000
H    -4.515000000     0.743000000     5.146000000
O    -6.492000000    -0.990000000    -1.124000000
H    -6.343000000    -1.235000000    -0.211000000
H    -6.377000000    -0.040000000    -1.139000000
O    -5.254000000     1.416000000    -0.266000000
H    -5.982000000     2.014000000    -0.096000000
H    -4.499000000     1.834000000     0.149000000
O    -3.107000000    -6.276000000     1.547000000
H    -3.513000000    -7.101000000     1.817000000
H    -2.743000000    -5.914000000     2.355000000
O     0.351000000     3.378000000    -4.535000000
H     0.992000000     3.010000000    -3.927000000
H    -0.291000000     2.679000000    -4.657000000
O     4.136000000     0.286000000    -1.926000000
H     3.522000000     1.003000000    -1.766000000
H     4.077000000    -0.259000000    -1.142000000
O     3.303000000     2.055000000    -6.185000000
H     3.495000000     2.390000000    -5.309000000
H     2.360000000     1.890000000    -6.178000000
O    -2.037000000    -5.114000000     4.246000000
H    -1.818000000    -4.194000000     4.396000000
H    -1.196000000    -5.569000000     4.279000000
O    -2.727000000     2.217000000     0.221000000
H    -2.354000000     1.345000000     0.093000000
H    -1.984000000     2.812000000     0.121000000
O    -0.751000000    -7.897000000     0.850000000
H    -1.505000000    -7.317000000     0.741000000
H    -0.310000000    -7.572000000     1.634000000
O    -4.697000000    -0.668000000     2.106000000
H    -5.528000000    -1.117000000     1.947000000
H    -4.432000000    -0.344000000     1.245000000
O     5.132000000     3.097000000     3.383000000
H     6.066000000     3.306000000     3.396000000
H     4.960000000     2.828000000     2.480000000
O    -2.699000000     3.091000000     5.291000000
H    -3.133000000     2.366000000     4.841000000
H    -2.834000000     3.844000000     4.715000000
O    -0.144000000    -2.931000000    -4.310000000
H     0.404000000    -2.268000000    -4.729000000
H     0.340000000    -3.749000000    -4.424000000
O     3.395000000     5.329000000    -5.446000000
H     3.854000000     4.702000000    -4.886000000
H     4.091000000     5.865000000    -5.826000000
O     2.072000000    -4.929000000    -0.295000000
H     1.610000000    -5.704000000    -0.614000000
H     1.834000000    -4.872000000     0.631000000
O     1.522000000     4.485000000     2.164000000
H     1.867000000     3.817000000     2.757000000
H     1.728000000     4.157000000     1.288000000
O    -2.970000000    -4.852000000    -1.008000000
H    -3.651000000    -4.199000000    -1.171000000
H    -3.043000000    -5.045000000    -0.073000000
O     1.804000000     2.576000000     3.905000000
H     2.502000000     1.968000000     4.149000000
H     1.277000000     2.667000000     4.699000000
O    -2.386000000    -1.759000000    -3.661000000
H    -1.611000000    -2.305000000    -3.799000000
H    -2.751000000    -1.636000000    -4.537000000
O     5.488000000    -0.523000000     0.894000000
H     4.847000000    -1.143000000     1.241000000
H     4.960000000     0.186000000     0.525000000
O     0.970000000    -0.354000000    -5.203000000
H     0.576000000    -0.393000000    -6.074000000
H     0.472000000     0.324000000    -4.745000000
O     3.989000000     1.266000000     5.110000000
H     4.728000000     1.180000000     5.712000000
H     4.210000000     2.021000000     4.565000000
O     2.901000000    -1.548000000     1.154000000
H     3.206000000    -2.099000000     0.433000000
H     1.956000000    -1.694000000     1.183000000
O     1.152000000    -3.214000000     3.871000000
H     0.257000000    -3.121000000     4.199000000
H     1.550000000    -2.356000000     4.016000000
O     7.022000000     1.153000000    -2.170000000
H     6.190000000     0.717000000    -1.987000000
H     7.213000000     0.931000000    -3.082000000
O    -2.184000000    -5.016000000    -3.719000000
H    -2.612000000    -4.965000000    -2.864000000
H    -1.446000000    -4.410000000    -3.654000000
O     3.899000000     2.909000000    -3.835000000
H     4.580000000     2.237000000    -3.860000000
H     3.321000000     2.637000000    -3.122000000
O    -1.111000000    -2.050000000     5.374000000
H    -0.485000000    -1.331000000     5.459000000
H    -1.923000000    -1.705000000     5.744000000
O     1.054000000    -7.164000000    -1.543000000
H     1.402000000    -8.031000000    -1.337000000
H     0.344000000    -7.035000000    -0.914000000
O    -0.011000000     6.865000000    -0.694000000
H     0.038000000     6.259000000    -1.434000000
H     0.249000000     7.711000000    -1.060000000
O     3.293000000    -2.736000000    -1.293000000
H     3.586000000    -2.338000000    -2.113000000
H     2.584000000    -3.324000000    -1.552000000
O    -1.135000000     1.197000000    -3.860000000
H    -1.622000000     1.932000000    -3.488000000
H    -1.525000000     0.422000000    -3.455000000
O     2.816000000    -0.980000000     3.885000000
H     2.833000000    -0.970000000     2.928000000
H     3.203000000    -0.143000000     4.140000000
O     5.746000000     3.611000000    -1.201000000
H     6.198000000     2.868000000    -1.601000000
H     6.450000000     4.189000000    -0.906000000
