161
-3065.56333
C     0.870000000     0.380000000    -1.176000000
H     1.484000000     0.420000000    -2.072000000
C     0.570000000    -0.939000000    -0.736000000
H     1.004000000    -1.812000000    -1.216000000
C    -0.180000000    -1.159000000     0.430000000
C    -0.612000000    -2.577000000     0.922000000
H    -1.670000000    -2.787000000     0.754000000
H    -0.120000000    -3.300000000     0.267000000
H    -0.323000000    -2.802000000     1.950000000
C    -0.752000000    -0.056000000     1.089000000
H    -1.431000000    -0.193000000     1.927000000
C    -0.439000000     1.233000000     0.611000000
H    -0.910000000     2.101000000     1.065000000
C     0.362000000     1.512000000    -0.451000000
C     0.651000000     2.942000000    -0.973000000
O     0.434000000     3.917000000    -0.295000000
O     1.070000000     3.123000000    -2.100000000
O    -2.867000000     3.470000000    -1.512000000
H    -2.247000000     3.664000000    -2.215000000
H    -3.088000000     2.547000000    -1.636000000
O    -3.534000000    -6.396000000    -0.308000000
H    -2.819000000    -6.133000000     0.271000000
H    -4.329000000    -6.162000000     0.171000000
O    -1.706000000    -0.472000000    -2.664000000
H    -1.014000000    -0.422000000    -2.004000000
H    -2.488000000    -0.147000000    -2.218000000
O     3.158000000    -2.094000000     1.444000000
H     2.462000000    -1.440000000     1.376000000
H     2.833000000    -2.723000000     2.088000000
O     2.491000000     5.446000000    -2.210000000
H     1.994000000     4.629000000    -2.160000000
H     2.541000000     5.752000000    -1.305000000
O     0.825000000     3.823000000     3.720000000
H     0.079000000     4.253000000     3.300000000
H     1.521000000     3.856000000     3.064000000
O    -3.616000000     2.075000000     2.420000000
H    -3.556000000     2.933000000     2.000000000
H    -2.743000000     1.923000000     2.780000000
O    -6.001000000    -4.813000000     0.433000000
H    -6.189000000    -5.023000000     1.348000000
H    -5.303000000    -4.159000000     0.476000000
O    -0.627000000    -2.778000000    -3.434000000
H    -1.033000000    -2.026000000    -3.003000000
H     0.093000000    -2.402000000    -3.941000000
O    -3.530000000     4.352000000     0.940000000
H    -3.956000000     5.183000000     0.732000000
H    -3.411000000     3.925000000     0.092000000
O    -2.586000000    -1.444000000     4.074000000
H    -2.511000000    -2.304000000     4.488000000
H    -1.686000000    -1.121000000     4.025000000
O    -1.872000000    -6.416000000     2.095000000
H    -1.279000000    -5.672000000     2.202000000
H    -1.862000000    -6.855000000     2.946000000
O    -4.123000000     0.576000000    -1.474000000
H    -4.291000000     0.356000000    -0.557000000
H    -4.715000000     1.306000000    -1.657000000
O     4.963000000     1.745000000    -2.470000000
H     5.360000000     2.397000000    -3.048000000
H     4.091000000     1.599000000    -2.838000000
O     1.447000000    -1.571000000    -4.795000000
H     2.166000000    -1.415000000    -4.182000000
H     1.871000000    -1.931000000    -5.575000000
O     2.502000000     6.910000000     0.638000000
H     2.395000000     7.020000000     1.583000000
H     1.672000000     7.211000000     0.267000000
O     4.436000000    -0.518000000    -0.887000000
H     3.982000000    -1.079000000    -1.516000000
H     4.891000000     0.128000000    -1.426000000
O    -4.149000000    -2.940000000     0.330000000
H    -3.912000000    -2.698000000    -0.565000000
H    -4.220000000    -2.106000000     0.793000000
O     5.747000000     2.938000000     0.970000000
H     4.918000000     2.747000000     0.530000000
H     5.649000000     3.836000000     1.286000000
O     0.277000000    -0.762000000     5.219000000
H     0.741000000    -1.340000000     5.825000000
H     0.971000000    -0.324000000     4.727000000
O    -1.662000000     6.574000000     3.575000000
H    -1.294000000     6.049000000     2.865000000
H    -2.412000000     6.066000000     3.885000000
O    -0.814000000     4.853000000     1.623000000
H    -0.351000000     4.713000000     0.797000000
H    -1.731000000     4.671000000     1.416000000
O    -4.092000000    -2.278000000    -2.481000000
H    -4.545000000    -1.443000000    -2.362000000
H    -4.367000000    -2.578000000    -3.347000000
O     2.318000000    -4.748000000     1.530000000
H     2.945000000    -5.468000000     1.599000000
H     1.553000000    -5.048000000     2.021000000
O    -0.942000000     3.308000000    -3.768000000
H    -1.072000000     2.376000000    -3.943000000
H    -0.274000000     3.333000000    -3.084000000
O     3.595000000    -1.784000000    -3.302000000
H     4.458000000    -1.731000000    -3.713000000
H     3.608000000    -2.613000000    -2.824000000
O     3.373000000     1.098000000     1.134000000
H     2.899000000     0.591000000     0.475000000
H     4.284000000     0.817000000     1.042000000
O     4.933000000     4.679000000    -3.329000000
H     4.146000000     4.759000000    -2.790000000
H     4.605000000     4.624000000    -4.226000000
O     0.638000000     4.729000000    -5.702000000
H     0.509000000     4.556000000    -4.769000000
H     1.013000000     3.918000000    -6.046000000
O    -4.315000000     0.124000000     5.539000000
H    -3.685000000    -0.298000000     4.955000000
H    -5.076000000    -0.457000000     5.531000000
O    -0.605000000     6.193000000    -1.801000000
H     0.016000000     5.730000000    -1.238000000
H    -1.429000000     5.719000000    -1.689000000
O     2.568000000     3.634000000     1.660000000
H     2.929000000     2.756000000     1.539000000
H     2.051000000     3.792000000     0.870000000
O    -1.282000000    -5.449000000    -3.440000000
H    -1.424000000    -4.506000000    -3.528000000
H    -1.454000000    -5.799000000    -4.314000000
O     2.067000000     0.709000000     3.935000000
H     2.113000000     1.054000000     3.043000000
H     2.967000000     0.760000000     4.258000000
O    -1.101000000     1.613000000     4.469000000
H    -0.466000000     2.052000000     3.903000000
H    -0.594000000     0.938000000     4.919000000
O     1.003000000     7.254000000    -3.790000000
H     0.219000000     6.964000000    -3.323000000
H     1.723000000     6.795000000    -3.358000000
O    -4.665000000    -0.369000000     1.371000000
H    -4.515000000     0.486000000     1.773000000
H    -5.542000000    -0.620000000     1.659000000
O     4.088000000     5.564000000     3.282000000
H     3.433000000     5.019000000     2.847000000
H     3.763000000     5.661000000     4.177000000
O     2.494000000    -4.999000000    -4.204000000
H     1.616000000    -4.867000000    -3.846000000
H     2.827000000    -5.769000000    -3.744000000
O     2.475000000     1.685000000    -3.817000000
H     2.467000000     2.010000000    -4.717000000
H     1.848000000     2.242000000    -3.355000000
O    -0.559000000     0.498000000    -4.790000000
H    -0.811000000     0.134000000    -3.941000000
H     0.327000000     0.169000000    -4.938000000
O     2.570000000    -7.338000000    -0.085000000
H     3.249000000    -7.951000000    -0.368000000
H     2.911000000    -6.476000000    -0.324000000
O    -1.297000000    -7.430000000    -1.643000000
H    -2.232000000    -7.291000000    -1.492000000
H    -0.985000000    -6.597000000    -1.997000000
O     0.848000000    -5.968000000     3.438000000
H     0.663000000    -5.809000000     4.363000000
H     0.932000000    -6.920000000     3.371000000
O     0.150000000     8.184000000    -0.015000000
H    -0.238000000     9.059000000    -0.008000000
H    -0.319000000     7.719000000    -0.709000000
O    -2.703000000     5.287000000    -3.806000000
H    -3.516000000     4.783000000    -3.771000000
H    -2.019000000     4.630000000    -3.939000000
O     3.587000000    -3.745000000    -0.954000000
H     4.459000000    -3.350000000    -0.950000000
H     3.120000000    -3.303000000    -0.245000000
O    -3.159000000     2.524000000     6.067000000
H    -3.580000000     1.669000000     6.148000000
H    -2.394000000     2.364000000     5.514000000
