161
-3067.15782
C    -1.304000000     0.764000000    -0.128000000
H    -2.263000000     1.265000000    -0.029000000
C    -1.137000000    -0.545000000     0.277000000
H    -2.013000000    -1.089000000     0.622000000
C     0.125000000    -1.180000000     0.348000000
C     0.232000000    -2.700000000     0.758000000
H     0.585000000    -3.272000000    -0.103000000
H     0.988000000    -2.920000000     1.514000000
H    -0.724000000    -3.169000000     0.998000000
C     1.191000000    -0.434000000     0.055000000
H     2.206000000    -0.790000000     0.210000000
C     1.076000000     0.901000000    -0.345000000
H     1.986000000     1.393000000    -0.680000000
C    -0.229000000     1.530000000    -0.477000000
C    -0.226000000     3.002000000    -0.899000000
O     0.555000000     3.803000000    -0.375000000
O    -1.048000000     3.435000000    -1.745000000
O    -0.118000000     3.979000000    -6.508000000
H    -0.899000000     4.445000000    -6.209000000
H     0.114000000     3.406000000    -5.777000000
O    -4.425000000     5.347000000     1.899000000
H    -3.651000000     5.359000000     2.462000000
H    -4.343000000     4.536000000     1.396000000
O    -3.861000000    -1.544000000    -4.054000000
H    -3.241000000    -1.474000000    -3.328000000
H    -4.563000000    -0.934000000    -3.829000000
O    -1.165000000     6.399000000    -3.725000000
H    -0.448000000     5.886000000    -3.352000000
H    -1.771000000     6.529000000    -2.996000000
O     0.424000000    -3.742000000    -3.547000000
H     0.528000000    -3.713000000    -4.498000000
H     0.922000000    -2.989000000    -3.228000000
O    -5.143000000     1.332000000    -1.321000000
H    -5.265000000     0.452000000    -1.678000000
H    -5.930000000     1.808000000    -1.585000000
O     2.443000000     3.379000000     1.343000000
H     3.017000000     2.670000000     1.055000000
H     1.868000000     3.541000000     0.596000000
O    -2.617000000     4.137000000    -5.351000000
H    -2.255000000     4.860000000    -4.838000000
H    -2.913000000     3.504000000    -4.697000000
O    -4.437000000     6.247000000    -3.830000000
H    -3.940000000     5.540000000    -3.418000000
H    -4.433000000     6.952000000    -3.182000000
O    -0.702000000    -5.909000000     0.584000000
H    -0.657000000    -6.865000000     0.606000000
H     0.190000000    -5.623000000     0.778000000
O    -2.711000000    -5.191000000     2.438000000
H    -1.993000000    -5.388000000     1.836000000
H    -3.051000000    -4.349000000     2.137000000
O     1.898000000    -6.056000000     0.107000000
H     1.812000000    -6.475000000    -0.749000000
H     2.512000000    -6.612000000     0.586000000
O    -4.237000000    -0.874000000     1.731000000
H    -4.930000000    -0.277000000     2.015000000
H    -3.474000000    -0.619000000     2.250000000
O     3.012000000     3.296000000    -3.356000000
H     2.422000000     2.812000000    -3.934000000
H     3.832000000     3.354000000    -3.846000000
O     4.348000000    -1.245000000     1.034000000
H     4.113000000    -1.209000000     1.961000000
H     3.984000000    -2.075000000     0.727000000
O     0.354000000    -0.164000000    -3.026000000
H     1.133000000    -0.718000000    -2.988000000
H     0.118000000    -0.019000000    -2.110000000
O    -1.489000000    -0.287000000     3.986000000
H    -0.681000000    -0.634000000     4.363000000
H    -2.120000000    -1.002000000     4.072000000
O    -4.075000000    -3.535000000     1.070000000
H    -4.136000000    -2.601000000     1.270000000
H    -4.836000000    -3.711000000     0.517000000
O     4.862000000     3.139000000    -1.315000000
H     4.089000000     2.971000000    -1.854000000
H     4.720000000     4.018000000    -0.962000000
O    -3.305000000    -2.297000000     4.454000000
H    -3.564000000    -2.367000000     5.373000000
H    -3.174000000    -3.202000000     4.171000000
O    -0.821000000     5.885000000     0.410000000
H    -0.275000000     5.128000000     0.198000000
H    -1.547000000     5.839000000    -0.212000000
O     2.355000000    -1.936000000    -2.527000000
H     3.207000000    -1.724000000    -2.908000000
H     2.565000000    -2.387000000    -1.709000000
O    -0.883000000    -5.022000000     4.893000000
H    -1.503000000    -5.074000000     4.166000000
H    -0.023000000    -5.003000000     4.473000000
O     1.012000000     5.250000000    -2.530000000
H     0.879000000     4.697000000    -1.760000000
H     1.822000000     4.923000000    -2.923000000
O     4.278000000     1.464000000     0.723000000
H     4.201000000     0.517000000     0.607000000
H     4.722000000     1.767000000    -0.069000000
O     4.607000000     5.751000000    -0.362000000
H     3.901000000     5.821000000     0.281000000
H     5.331000000     6.247000000     0.022000000
O     1.709000000     8.013000000    -2.780000000
H     1.390000000     7.147000000    -3.034000000
H     1.341000000     8.158000000    -1.909000000
O    -1.959000000    -5.089000000    -4.203000000
H    -1.456000000    -4.489000000    -3.652000000
H    -2.611000000    -4.533000000    -4.629000000
O     1.163000000    -6.262000000    -2.705000000
H     1.730000000    -6.491000000    -3.441000000
H     0.960000000    -5.336000000    -2.838000000
O    -2.552000000     5.410000000    -1.633000000
H    -2.106000000     4.580000000    -1.806000000
H    -3.114000000     5.226000000    -0.880000000
O     1.985000000     5.203000000     3.342000000
H     2.655000000     5.058000000     4.010000000
H     2.063000000     4.450000000     2.756000000
O     1.868000000    -6.133000000     4.323000000
H     2.011000000    -6.100000000     5.269000000
H     2.473000000    -5.482000000     3.967000000
O     5.421000000     3.386000000     2.611000000
H     5.135000000     2.713000000     1.993000000
H     6.311000000     3.603000000     2.333000000
O    -1.656000000    -2.873000000    -2.007000000
H    -0.883000000    -3.008000000    -2.555000000
H    -1.310000000    -2.521000000    -1.187000000
O     3.763000000    -4.127000000     3.891000000
H     3.317000000    -3.293000000     3.746000000
H     3.862000000    -4.184000000     4.841000000
O     1.119000000     1.101000000     3.015000000
H     1.595000000     1.391000000     2.237000000
H     0.265000000     0.824000000     2.684000000
O    -0.831000000     5.318000000     3.302000000
H     0.081000000     5.157000000     3.543000000
H    -0.846000000     5.224000000     2.349000000
O     1.052000000     7.984000000    -0.260000000
H     1.513000000     7.871000000     0.571000000
H     0.479000000     7.219000000    -0.321000000
O    -2.254000000     2.448000000     2.807000000
H    -2.117000000     2.892000000     3.644000000
H    -2.161000000     1.517000000     3.012000000
O    -4.793000000    -6.461000000     0.832000000
H    -4.506000000    -5.637000000     1.226000000
H    -4.508000000    -6.402000000    -0.080000000
O    -0.228000000     2.406000000    -4.214000000
H     0.207000000     1.690000000    -3.751000000
H    -0.516000000     3.000000000    -3.520000000
O    -3.296000000     2.850000000    -3.219000000
H    -4.081000000     2.463000000    -2.832000000
H    -2.598000000     2.650000000    -2.596000000
O     2.987000000    -1.202000000     3.515000000
H     2.117000000    -0.809000000     3.583000000
H     3.445000000    -0.907000000     4.303000000
O    -2.621000000    -5.473000000    -1.188000000
H    -2.621000000    -4.618000000    -1.620000000
H    -1.835000000    -5.466000000    -0.643000000
O     3.168000000    -3.517000000    -0.244000000
H     2.554000000    -4.090000000     0.216000000
H     3.831000000    -4.112000000    -0.596000000
O     2.441000000     7.895000000     2.146000000
H     2.359000000     6.954000000     2.301000000
H     2.163000000     8.297000000     2.968000000
O    -3.803000000     3.354000000     0.445000000
H    -4.227000000     2.602000000     0.032000000
H    -3.329000000     2.983000000     1.189000000
O     0.161000000    -2.284000000     5.195000000
H    -0.223000000    -3.148000000     5.345000000
H     0.454000000    -1.999000000     6.061000000
