161
-3019.28178
C    -0.768000000     1.227000000     0.435000000
H    -1.323000000     2.072000000     0.837000000
C    -0.768000000     0.043000000     1.144000000
H    -1.413000000     0.050000000     2.019000000
C    -0.006000000    -1.051000000     0.641000000
C     0.159000000    -2.315000000     1.388000000
H     1.143000000    -2.723000000     1.148000000
H     0.148000000    -2.197000000     2.473000000
H    -0.607000000    -3.003000000     1.024000000
C     0.761000000    -0.905000000    -0.492000000
H     1.331000000    -1.765000000    -0.834000000
C     0.783000000     0.279000000    -1.226000000
H     1.336000000     0.325000000    -2.161000000
C    -0.068000000     1.368000000    -0.784000000
C    -0.206000000     2.564000000    -1.626000000
O    -0.068000000     2.439000000    -2.838000000
O    -0.431000000     3.589000000    -1.151000000
O    -3.227000000    -2.838000000    -3.109000000
H    -3.545000000    -3.500000000    -3.722000000
H    -2.343000000    -3.127000000    -2.882000000
O     1.692000000     4.267000000     0.463000000
H     0.787000000     4.400000000     0.183000000
H     1.789000000     3.317000000     0.518000000
O    -0.462000000    -3.412000000    -2.719000000
H    -0.324000000    -2.584000000    -3.179000000
H     0.413000000    -3.675000000    -2.432000000
O     0.561000000     8.313000000    -0.789000000
H     0.285000000     7.942000000     0.049000000
H     1.474000000     8.040000000    -0.883000000
O    -2.390000000     4.369000000     3.315000000
H    -2.539000000     5.202000000     3.763000000
H    -1.818000000     3.879000000     3.906000000
O     3.413000000     1.722000000    -0.020000000
H     2.868000000     1.518000000     0.740000000
H     3.851000000     0.897000000    -0.230000000
O     0.267000000    -1.471000000    -4.829000000
H    -0.553000000    -1.809000000    -5.189000000
H     0.279000000    -0.549000000    -5.085000000
O     0.534000000     4.684000000    -4.278000000
H     0.318000000     3.886000000    -3.795000000
H    -0.028000000     5.357000000    -3.893000000
O     5.546000000    -0.694000000     1.553000000
H     5.252000000    -0.260000000     0.752000000
H     6.081000000    -1.426000000     1.247000000
O    -0.138000000     3.033000000     4.448000000
H    -0.278000000     2.592000000     5.286000000
H     0.524000000     3.699000000     4.635000000
O     4.347000000    -6.862000000     1.446000000
H     5.101000000    -6.854000000     2.037000000
H     3.676000000    -6.359000000     1.908000000
O    -5.351000000    -1.935000000     5.272000000
H    -4.711000000    -1.856000000     5.979000000
H    -4.886000000    -1.631000000     4.493000000
O    -3.251000000    -5.359000000     1.847000000
H    -2.792000000    -5.047000000     1.068000000
H    -2.630000000    -5.951000000     2.270000000
O    -0.166000000     1.359000000    -5.165000000
H    -0.094000000     1.680000000    -4.266000000
H     0.238000000     2.044000000    -5.698000000
O     3.942000000     3.911000000    -5.382000000
H     3.913000000     3.639000000    -4.465000000
H     4.203000000     3.123000000    -5.858000000
O    -0.507000000     7.614000000     1.675000000
H    -0.757000000     6.745000000     1.362000000
H    -0.653000000     7.579000000     2.621000000
O     2.102000000    -4.648000000    -2.988000000
H     3.014000000    -4.750000000    -2.716000000
H     1.620000000    -5.276000000    -2.449000000
O     0.516000000    -5.453000000    -0.791000000
H     0.554000000    -5.358000000     0.161000000
H    -0.022000000    -6.231000000    -0.933000000
O     1.681000000     2.043000000     1.964000000
H     1.053000000     1.321000000     1.950000000
H     1.633000000     2.387000000     2.856000000
O    -4.647000000     1.803000000    -1.978000000
H    -4.469000000     1.085000000    -2.585000000
H    -5.137000000     2.440000000    -2.499000000
O     1.859000000    -3.699000000    -5.552000000
H     1.846000000    -4.061000000    -4.666000000
H     1.622000000    -2.778000000    -5.437000000
O     4.785000000     4.478000000    -0.357000000
H     5.491000000     3.865000000    -0.153000000
H     4.027000000     3.921000000    -0.532000000
O     2.944000000     2.799000000    -2.844000000
H     2.059000000     3.114000000    -3.026000000
H     2.967000000     2.682000000    -1.895000000
O    -3.020000000     4.593000000    -2.194000000
H    -3.593000000     4.073000000    -1.631000000
H    -2.142000000     4.251000000    -2.024000000
O    -4.080000000    -0.916000000     2.960000000
H    -3.911000000    -1.156000000     2.049000000
H    -4.257000000     0.024000000     2.932000000
O    -2.164000000    -4.560000000    -0.496000000
H    -1.223000000    -4.458000000    -0.639000000
H    -2.477000000    -5.014000000    -1.279000000
O     4.079000000    -4.163000000     2.592000000
H     3.540000000    -3.645000000     3.191000000
H     4.766000000    -3.561000000     2.308000000
O    -0.623000000    -3.910000000     4.470000000
H    -1.455000000    -3.734000000     4.030000000
H    -0.848000000    -3.950000000     5.400000000
O    -3.455000000    -1.480000000     0.432000000
H    -2.635000000    -1.742000000     0.014000000
H    -4.123000000    -1.626000000    -0.238000000
O     2.610000000     6.855000000    -0.142000000
H     3.295000000     6.784000000     0.522000000
H     2.415000000     5.950000000    -0.384000000
O     5.388000000    -4.498000000    -0.257000000
H     5.219000000    -4.998000000    -1.056000000
H     4.616000000    -4.650000000     0.288000000
O     5.725000000     1.544000000    -2.983000000
H     5.480000000     1.063000000    -2.192000000
H     4.981000000     2.122000000    -3.151000000
O     0.450000000    -5.613000000     2.402000000
H     0.251000000    -4.966000000     3.079000000
H    -0.287000000    -6.223000000     2.430000000
O     0.824000000    -0.891000000     5.147000000
H    -0.129000000    -0.921000000     5.069000000
H     1.067000000    -0.032000000     4.802000000
O    -3.281000000    -1.751000000     6.819000000
H    -3.530000000    -1.094000000     7.470000000
H    -2.797000000    -1.260000000     6.155000000
O    -5.654000000    -4.467000000     2.369000000
H    -6.065000000    -4.751000000     1.553000000
H    -4.723000000    -4.657000000     2.247000000
O     2.713000000     6.245000000    -4.465000000
H     1.808000000     6.001000000    -4.268000000
H     3.050000000     5.515000000    -4.983000000
O    -0.991000000     6.385000000    -2.982000000
H    -0.790000000     6.627000000    -2.077000000
H    -1.886000000     6.047000000    -2.947000000
O    -2.831000000     1.777000000    -5.600000000
H    -2.905000000     1.597000000    -4.663000000
H    -1.890000000     1.760000000    -5.774000000
O    -3.816000000     2.237000000     0.378000000
H    -4.051000000     1.967000000    -0.510000000
H    -3.396000000     1.467000000     0.760000000
O    -4.624000000     4.215000000     2.061000000
H    -3.900000000     4.154000000     2.684000000
H    -4.367000000     3.643000000     1.338000000
O    -1.895000000    -0.385000000     4.754000000
H    -2.516000000    -0.515000000     4.037000000
H    -1.892000000     0.561000000     4.899000000
O    -1.408000000     5.021000000     0.725000000
H    -1.685000000     4.477000000     1.462000000
H    -1.348000000     4.413000000    -0.013000000
O     0.380000000     6.311000000    -6.806000000
H     1.236000000     6.063000000    -7.156000000
H     0.148000000     5.598000000    -6.212000000
O     2.301000000    -3.182000000     4.708000000
H     2.119000000    -2.256000000     4.865000000
H     1.484000000    -3.628000000     4.931000000
O     2.853000000    -1.441000000    -3.679000000
H     1.930000000    -1.544000000    -3.912000000
H     3.330000000    -1.740000000    -4.454000000
O    -3.418000000     7.784000000    -0.591000000
H    -4.164000000     7.185000000    -0.628000000
H    -2.745000000     7.300000000    -0.113000000
O     4.381000000    -0.432000000    -1.448000000
H     4.980000000    -1.174000000    -1.537000000
H     3.661000000    -0.632000000    -2.047000000
