161
-3018.82331
C    -0.834000000    -1.133000000    -0.405000000
H    -1.246000000    -2.061000000    -0.794000000
C     0.398000000    -1.186000000     0.252000000
H     0.825000000    -2.186000000     0.274000000
C     1.133000000    -0.064000000     0.591000000
C     2.526000000    -0.178000000     1.155000000
H     2.535000000    -0.859000000     2.008000000
H     3.238000000    -0.610000000     0.448000000
H     2.811000000     0.751000000     1.652000000
C     0.555000000     1.186000000     0.326000000
H     1.015000000     2.124000000     0.626000000
C    -0.810000000     1.264000000    -0.194000000
H    -1.288000000     2.201000000    -0.468000000
C    -1.469000000     0.081000000    -0.625000000
C    -2.773000000     0.178000000    -1.380000000
O    -3.584000000     1.092000000    -1.171000000
O    -3.034000000    -0.607000000    -2.301000000
O    -2.815000000    -0.998000000     2.022000000
H    -2.706000000    -1.611000000     2.749000000
H    -2.162000000    -1.271000000     1.378000000
O     5.007000000     2.917000000     0.012000000
H     5.899000000     2.611000000     0.176000000
H     4.614000000     2.987000000     0.882000000
O    -7.559000000     2.382000000    -0.734000000
H    -7.259000000     1.750000000    -1.387000000
H    -7.209000000     2.055000000     0.095000000
O     4.409000000     2.922000000    -2.711000000
H     5.348000000     2.929000000    -2.899000000
H     4.353000000     2.701000000    -1.781000000
O    -1.768000000     4.301000000     2.904000000
H    -2.094000000     4.627000000     2.066000000
H    -1.716000000     5.078000000     3.460000000
O    -5.289000000     1.955000000    -5.630000000
H    -4.461000000     1.810000000    -5.171000000
H    -5.111000000     2.691000000    -6.216000000
O     1.053000000     7.047000000    -2.288000000
H     0.979000000     6.139000000    -1.996000000
H     0.572000000     7.550000000    -1.631000000
O    -1.050000000    -5.125000000     0.382000000
H    -1.198000000    -4.330000000     0.894000000
H    -1.925000000    -5.486000000     0.242000000
O     1.002000000     6.702000000     1.923000000
H     0.381000000     7.258000000     1.452000000
H     1.862000000     7.011000000     1.639000000
O     1.070000000    -3.206000000     3.487000000
H     1.146000000    -4.149000000     3.340000000
H     1.969000000    -2.883000000     3.440000000
O     2.079000000     2.329000000    -3.836000000
H     2.829000000     2.721000000    -3.389000000
H     2.388000000     1.466000000    -4.112000000
O     3.493000000    -2.575000000    -2.490000000
H     3.146000000    -3.430000000    -2.237000000
H     4.423000000    -2.620000000    -2.271000000
O    -3.909000000    -2.998000000    -0.993000000
H    -3.764000000    -2.095000000    -1.274000000
H    -4.579000000    -2.933000000    -0.313000000
O     1.941000000     1.838000000     4.680000000
H     1.545000000     1.069000000     4.271000000
H     1.601000000     2.578000000     4.178000000
O    -0.730000000     2.429000000    -3.672000000
H    -0.495000000     3.351000000    -3.782000000
H     0.107000000     1.967000000    -3.667000000
O     2.947000000     1.413000000     7.141000000
H     2.556000000     1.579000000     6.283000000
H     2.200000000     1.333000000     7.734000000
O     1.026000000    -5.157000000    -3.730000000
H     0.239000000    -4.987000000    -3.213000000
H     1.647000000    -5.531000000    -3.106000000
O     4.858000000     1.157000000     4.039000000
H     4.507000000     1.679000000     3.317000000
H     4.140000000     1.108000000     4.670000000
O    -2.477000000    -2.575000000    -4.022000000
H    -2.710000000    -1.703000000    -3.704000000
H    -2.491000000    -3.127000000    -3.240000000
O     1.403000000     4.165000000    -1.715000000
H     1.288000000     4.035000000    -2.657000000
H     1.089000000     3.351000000    -1.321000000
O    -1.754000000    -4.957000000    -5.492000000
H    -1.740000000    -5.589000000    -4.772000000
H    -2.139000000    -4.168000000    -5.110000000
O    -2.905000000     1.052000000    -4.476000000
H    -2.957000000     0.451000000    -3.732000000
H    -2.124000000     1.577000000    -4.305000000
O     1.177000000    -1.321000000    -2.908000000
H     2.020000000    -1.773000000    -2.872000000
H     0.979000000    -1.110000000    -1.996000000
O    -5.391000000     5.608000000     1.253000000
H    -4.478000000     5.359000000     1.112000000
H    -5.736000000     5.762000000     0.373000000
O     4.423000000     5.670000000    -0.701000000
H     5.373000000     5.760000000    -0.770000000
H     4.279000000     4.732000000    -0.578000000
O     1.040000000    -6.837000000     0.897000000
H     1.218000000    -6.799000000     1.837000000
H     0.495000000    -6.068000000     0.726000000
O    -0.403000000    -1.481000000    -5.257000000
H    -1.133000000    -2.001000000    -4.920000000
H     0.073000000    -1.201000000    -4.475000000
O    -6.252000000     3.168000000     2.337000000
H    -6.214000000     4.089000000     2.080000000
H    -5.609000000     2.736000000     1.775000000
O     7.373000000    -4.045000000    -0.992000000
H     8.072000000    -3.803000000    -0.384000000
H     6.636000000    -3.488000000    -0.744000000
O    -2.682000000     5.228000000     0.618000000
H    -1.997000000     5.769000000     0.226000000
H    -2.903000000     4.590000000    -0.060000000
O     3.302000000    -5.039000000    -1.168000000
H     3.664000000    -5.632000000    -0.509000000
H     3.460000000    -5.481000000    -2.001000000
O     4.963000000    -3.276000000     0.630000000
H     4.095000000    -3.539000000     0.324000000
H     4.790000000    -2.683000000     1.360000000
O     2.905000000    -0.021000000    -4.864000000
H     2.702000000    -0.644000000    -5.562000000
H     2.649000000    -0.471000000    -4.059000000
O    -4.594000000     1.318000000     1.192000000
H    -4.190000000     0.514000000     1.520000000
H    -4.334000000     1.359000000     0.272000000
O    -2.230000000    -5.419000000    -2.319000000
H    -2.484000000    -5.158000000    -1.434000000
H    -2.824000000    -6.136000000    -2.538000000
O    -4.157000000    -2.172000000    -6.873000000
H    -4.851000000    -2.656000000    -6.426000000
H    -3.397000000    -2.255000000    -6.297000000
O     0.461000000    -0.384000000     4.001000000
H    -0.272000000     0.071000000     3.586000000
H     0.515000000    -1.221000000     3.540000000
O    -6.833000000    -1.472000000    -3.136000000
H    -6.943000000    -1.858000000    -4.005000000
H    -6.330000000    -2.123000000    -2.647000000
O     5.380000000    -1.047000000     2.410000000
H     5.145000000    -0.292000000     2.950000000
H     6.253000000    -0.840000000     2.076000000
O     1.130000000     4.292000000     3.142000000
H     1.161000000     5.215000000     2.890000000
H     0.214000000     4.137000000     3.372000000
O    -1.556000000     1.602000000     3.428000000
H    -1.631000000     2.503000000     3.114000000
H    -1.988000000     1.077000000     2.755000000
O    -1.334000000    -3.199000000     2.652000000
H    -2.015000000    -3.443000000     3.279000000
H    -0.519000000    -3.254000000     3.151000000
O     3.921000000     3.509000000     2.364000000
H     3.114000000     3.863000000     1.992000000
H     4.190000000     4.158000000     3.014000000
O    -2.389000000     0.745000000    -7.219000000
H    -2.752000000     0.991000000    -6.368000000
H    -1.568000000     0.301000000    -7.009000000
O    -6.292000000     0.929000000    -2.541000000
H    -5.365000000     0.996000000    -2.310000000
H    -6.451000000    -0.011000000    -2.623000000
O    -5.746000000    -4.231000000    -2.608000000
H    -5.287000000    -5.022000000    -2.891000000
H    -5.314000000    -3.982000000    -1.791000000
O     4.989000000    -3.101000000     5.374000000
H     4.883000000    -2.226000000     5.746000000
H     5.743000000    -3.024000000     4.790000000
O    -3.553000000     3.761000000    -1.621000000
H    -4.252000000     3.673000000    -2.269000000
H    -3.312000000     2.860000000    -1.404000000
