161
-3037.59441
C    -0.986000000     0.821000000    -0.565000000
H    -1.784000000     1.413000000    -1.005000000
C    -1.156000000    -0.510000000    -0.101000000
H    -2.177000000    -0.879000000    -0.059000000
C    -0.055000000    -1.227000000     0.355000000
C    -0.352000000    -2.626000000     0.767000000
H     0.551000000    -3.091000000     1.169000000
H    -1.175000000    -2.670000000     1.483000000
H    -0.674000000    -3.119000000    -0.153000000
C     1.157000000    -0.554000000     0.397000000
H     2.019000000    -1.058000000     0.825000000
C     1.304000000     0.776000000     0.025000000
H     2.262000000     1.266000000     0.182000000
C     0.190000000     1.475000000    -0.376000000
C     0.289000000     2.923000000    -0.875000000
O     1.331000000     3.521000000    -0.952000000
O    -0.747000000     3.541000000    -1.114000000
O     0.528000000    -1.182000000    -2.676000000
H     0.025000000    -0.569000000    -2.139000000
H     1.430000000    -1.080000000    -2.374000000
O     1.377000000     4.826000000     1.438000000
H     1.501000000     4.316000000     0.638000000
H     1.748000000     5.685000000     1.234000000
O    -0.515000000     8.506000000    -2.585000000
H     0.329000000     8.898000000    -2.361000000
H    -0.592000000     7.751000000    -2.001000000
O    -0.582000000     6.008000000     3.238000000
H    -0.853000000     5.255000000     3.763000000
H     0.152000000     5.684000000     2.716000000
O     3.674000000     8.014000000    -1.670000000
H     3.208000000     8.465000000    -0.966000000
H     3.002000000     7.489000000    -2.105000000
O    -1.096000000     3.853000000    -3.807000000
H    -0.162000000     4.016000000    -3.943000000
H    -1.201000000     3.841000000    -2.856000000
O    -1.883000000     6.842000000     1.171000000
H    -1.471000000     6.457000000     1.945000000
H    -2.577000000     6.225000000     0.938000000
O    -3.663000000     4.882000000    -4.293000000
H    -2.800000000     4.476000000    -4.205000000
H    -3.509000000     5.811000000    -4.120000000
O    -5.367000000     4.174000000    -0.798000000
H    -5.377000000     4.002000000    -1.740000000
H    -4.439000000     4.238000000    -0.576000000
O    -4.937000000     0.462000000    -0.617000000
H    -5.613000000     1.010000000    -1.016000000
H    -4.732000000    -0.191000000    -1.287000000
O    -1.438000000    -5.465000000     5.159000000
H    -2.000000000    -5.237000000     4.419000000
H    -0.999000000    -4.645000000     5.388000000
O     2.681000000     2.552000000    -3.150000000
H     3.193000000     3.212000000    -3.618000000
H     2.177000000     3.051000000    -2.508000000
O     1.339000000    -8.154000000    -0.310000000
H     1.503000000    -7.287000000     0.061000000
H     1.649000000    -8.764000000     0.360000000
O    -1.490000000    -5.315000000    -3.705000000
H    -2.442000000    -5.246000000    -3.777000000
H    -1.192000000    -4.411000000    -3.596000000
O    -6.242000000    -3.069000000     2.138000000
H    -5.911000000    -3.212000000     1.251000000
H    -5.501000000    -2.691000000     2.611000000
O     2.867000000    -5.562000000     5.035000000
H     3.798000000    -5.376000000     5.152000000
H     2.467000000    -4.704000000     4.895000000
O    -1.260000000    -2.563000000    -4.196000000
H    -1.293000000    -2.203000000    -5.083000000
H    -0.570000000    -2.064000000    -3.761000000
O    -3.657000000    -4.914000000     3.168000000
H    -3.825000000    -5.488000000     2.420000000
H    -3.183000000    -4.170000000     2.798000000
O    -5.038000000     0.191000000     2.293000000
H    -5.992000000     0.129000000     2.253000000
H    -4.763000000     0.241000000     1.377000000
O     5.030000000     6.000000000    -0.539000000
H     4.676000000     6.664000000    -1.131000000
H     5.938000000     6.268000000    -0.394000000
O    -1.401000000    -2.755000000     6.412000000
H    -1.527000000    -2.184000000     5.654000000
H    -2.170000000    -2.599000000     6.960000000
O     3.704000000    -0.143000000    -2.509000000
H     3.476000000     0.785000000    -2.562000000
H     4.254000000    -0.210000000    -1.729000000
O     1.128000000     2.628000000     3.347000000
H     1.411000000     3.455000000     2.956000000
H     0.394000000     2.869000000     3.912000000
O     3.885000000     3.374000000    -0.308000000
H     2.985000000     3.427000000    -0.631000000
H     4.169000000     4.286000000    -0.241000000
O     1.953000000     5.957000000    -2.812000000
H     1.730000000     5.907000000    -3.741000000
H     1.397000000     5.297000000    -2.396000000
O     1.682000000    -5.144000000    -0.343000000
H     1.857000000    -4.447000000    -0.975000000
H     1.318000000    -5.857000000    -0.867000000
O    -5.896000000    -3.455000000    -0.454000000
H    -6.725000000    -2.997000000    -0.598000000
H    -5.240000000    -2.901000000    -0.879000000
O    -1.824000000    -0.646000000     4.921000000
H    -2.094000000     0.186000000     5.309000000
H    -1.422000000    -0.403000000     4.087000000
O     5.613000000    -2.220000000    -1.064000000
H     4.905000000    -2.734000000    -1.452000000
H     5.304000000    -2.015000000    -0.181000000
O    -5.027000000     0.408000000    -4.305000000
H    -5.303000000     0.913000000    -3.540000000
H    -4.650000000     1.058000000    -4.897000000
O    -3.075000000    -7.248000000     0.843000000
H    -2.702000000    -7.268000000    -0.039000000
H    -4.021000000    -7.292000000     0.704000000
O     0.949000000     5.265000000    -5.314000000
H     1.057000000     4.906000000    -6.195000000
H     0.355000000     6.006000000    -5.429000000
O    -2.668000000     4.380000000     0.303000000
H    -1.967000000     4.110000000    -0.291000000
H    -2.645000000     3.735000000     1.010000000
O     3.874000000    -3.783000000    -2.386000000
H     4.442000000    -4.463000000    -2.747000000
H     3.517000000    -3.336000000    -3.153000000
O     4.476000000     0.011000000     3.882000000
H     3.991000000    -0.273000000     4.657000000
H     3.999000000     0.780000000     3.570000000
O    -3.695000000    -2.016000000     3.096000000
H    -3.077000000    -1.683000000     3.747000000
H    -4.195000000    -1.247000000     2.824000000
O     5.035000000     0.814000000     0.012000000
H     5.902000000     0.847000000    -0.393000000
H     4.724000000     1.718000000    -0.013000000
O    -0.123000000     6.287000000    -0.767000000
H     0.016000000     5.340000000    -0.759000000
H    -0.903000000     6.419000000    -0.228000000
O     1.543000000    -6.236000000     2.469000000
H     1.326000000    -5.783000000     1.654000000
H     2.244000000    -5.711000000     2.855000000
O    -0.509000000     0.550000000     2.646000000
H    -0.286000000     0.232000000     1.771000000
H     0.076000000     1.294000000     2.787000000
O     5.348000000     3.671000000    -2.815000000
H     4.540000000     3.508000000    -2.329000000
H     6.034000000     3.666000000    -2.148000000
O    -2.350000000    -7.292000000    -1.875000000
H    -2.086000000    -6.567000000    -2.440000000
H    -1.686000000    -7.966000000    -2.024000000
O     3.724000000    -3.751000000     2.405000000
H     3.870000000    -2.834000000     2.170000000
H     4.551000000    -4.186000000     2.199000000
O     1.131000000     2.002000000    -6.052000000
H     1.348000000     2.080000000    -5.123000000
H     1.253000000     2.885000000    -6.401000000
O     4.538000000    -1.380000000     1.276000000
H     4.729000000    -0.645000000     0.693000000
H     4.697000000    -1.037000000     2.155000000
O     1.905000000    -2.801000000     5.550000000
H     1.443000000    -2.104000000     6.016000000
H     2.827000000    -2.549000000     5.594000000
O    -2.827000000     2.365000000     1.900000000
H    -3.572000000     1.815000000     2.139000000
H    -2.060000000     1.818000000     2.073000000
O    -4.227000000    -2.028000000    -3.239000000
H    -3.393000000    -2.335000000    -3.597000000
H    -4.380000000    -1.190000000    -3.676000000
