161
-3019.69043
C    -0.956000000     1.076000000    -0.408000000
H    -1.769000000     1.739000000    -0.694000000
C    -1.189000000    -0.186000000     0.145000000
H    -2.244000000    -0.362000000     0.338000000
C    -0.280000000    -1.125000000     0.381000000
C    -0.739000000    -2.427000000     1.048000000
H    -1.168000000    -2.287000000     2.042000000
H    -1.551000000    -2.922000000     0.512000000
H     0.037000000    -3.180000000     1.199000000
C     1.050000000    -0.824000000     0.091000000
H     1.884000000    -1.508000000     0.229000000
C     1.409000000     0.434000000    -0.247000000
H     2.449000000     0.587000000    -0.524000000
C     0.415000000     1.398000000    -0.575000000
C     0.777000000     2.795000000    -1.026000000
O     1.926000000     3.238000000    -1.025000000
O    -0.050000000     3.554000000    -1.481000000
O     1.247000000    -1.697000000    -3.098000000
H     1.037000000    -1.128000000    -2.357000000
H     0.893000000    -2.551000000    -2.851000000
O     2.042000000     5.263000000     0.622000000
H     2.208000000     4.474000000     0.105000000
H     1.113000000     5.448000000     0.485000000
O     0.441000000     8.547000000    -2.976000000
H     0.978000000     9.007000000    -2.331000000
H     0.593000000     7.619000000    -2.795000000
O     2.895000000     7.038000000    -1.318000000
H     2.613000000     6.641000000    -0.494000000
H     2.332000000     6.639000000    -1.982000000
O    -5.061000000     0.200000000     0.921000000
H    -6.013000000     0.287000000     0.977000000
H    -4.859000000     0.370000000     0.001000000
O     0.367000000     2.966000000    -4.334000000
H     1.079000000     3.598000000    -4.436000000
H     0.056000000     3.099000000    -3.439000000
O    -6.873000000     3.714000000    -0.798000000
H    -7.225000000     3.933000000     0.065000000
H    -6.201000000     3.055000000    -0.623000000
O    -2.982000000     3.819000000    -2.385000000
H    -2.057000000     4.028000000    -2.254000000
H    -3.102000000     3.843000000    -3.334000000
O    -4.772000000     0.923000000    -1.639000000
H    -5.536000000     0.568000000    -2.093000000
H    -4.401000000     1.556000000    -2.254000000
O    -5.281000000    -2.684000000     1.173000000
H    -5.490000000    -1.775000000     0.960000000
H    -4.644000000    -2.945000000     0.508000000
O     4.156000000     2.348000000    -2.095000000
H     4.887000000     2.927000000    -1.879000000
H     3.375000000     2.877000000    -1.929000000
O    -3.097000000     6.874000000    -0.509000000
H    -3.360000000     7.353000000    -1.295000000
H    -3.892000000     6.422000000    -0.227000000
O    -1.852000000    -1.822000000    -4.458000000
H    -1.227000000    -1.313000000    -4.973000000
H    -1.322000000    -2.503000000    -4.043000000
O    -4.352000000    -1.069000000     3.672000000
H    -5.278000000    -0.835000000     3.730000000
H    -4.256000000    -1.457000000     2.802000000
O     2.986000000     5.833000000     3.209000000
H     2.599000000     5.584000000     2.369000000
H     3.915000000     5.960000000     3.017000000
O     0.724000000    -5.447000000    -1.887000000
H     0.473000000    -6.370000000    -1.853000000
H     1.578000000    -5.446000000    -2.320000000
O     4.968000000    -0.209000000    -1.950000000
H     4.581000000     0.659000000    -2.060000000
H     4.923000000    -0.374000000    -1.008000000
O    -5.638000000    -3.907000000    -2.271000000
H    -6.342000000    -3.413000000    -2.691000000
H    -5.045000000    -3.237000000    -1.932000000
O    -1.241000000    -3.785000000    -2.633000000
H    -1.948000000    -4.403000000    -2.814000000
H    -0.493000000    -4.336000000    -2.404000000
O     3.391000000     2.589000000     0.990000000
H     3.065000000     2.754000000     0.105000000
H     2.601000000     2.484000000     1.520000000
O     1.083000000     5.768000000    -2.788000000
H     0.883000000     4.904000000    -2.428000000
H     1.015000000     5.654000000    -3.736000000
O     1.596000000     0.486000000    -4.951000000
H     1.416000000    -0.187000000    -4.294000000
H     0.978000000     1.189000000    -4.750000000
O     2.534000000    -6.595000000     2.183000000
H     2.255000000    -6.469000000     3.090000000
H     2.892000000    -5.746000000     1.923000000
O    -0.287000000     7.521000000     2.123000000
H    -0.360000000     6.900000000     1.399000000
H    -0.624000000     8.344000000     1.768000000
O    -1.762000000    -1.219000000     6.261000000
H    -2.087000000    -0.919000000     5.413000000
H    -2.024000000    -0.533000000     6.875000000
O     5.479000000    -3.138000000     1.391000000
H     5.054000000    -3.767000000     0.808000000
H     4.764000000    -2.586000000     1.708000000
O    -4.149000000    -6.370000000     1.317000000
H    -4.807000000    -6.172000000     0.651000000
H    -3.312000000    -6.235000000     0.873000000
O    -1.429000000    -7.904000000     2.478000000
H    -1.438000000    -7.006000000     2.807000000
H    -1.747000000    -7.832000000     1.578000000
O     2.291000000     4.597000000    -5.088000000
H     2.532000000     4.215000000    -5.932000000
H     3.078000000     5.058000000    -4.800000000
O     5.757000000     3.751000000     1.908000000
H     5.764000000     3.136000000     2.642000000
H     4.988000000     3.502000000     1.395000000
O    -4.348000000     3.390000000     0.554000000
H    -3.930000000     3.807000000     1.307000000
H    -3.673000000     3.387000000    -0.124000000
O     4.316000000    -4.741000000    -0.685000000
H     4.324000000    -4.215000000    -1.484000000
H     3.625000000    -5.388000000    -0.831000000
O     3.508000000     0.674000000     4.658000000
H     3.320000000     0.949000000     5.555000000
H     2.733000000     0.934000000     4.160000000
O    -2.571000000    -3.224000000     4.569000000
H    -1.879000000    -2.707000000     4.980000000
H    -3.325000000    -2.635000000     4.539000000
O     5.011000000     0.454000000     0.902000000
H     5.864000000     0.809000000     0.650000000
H     4.427000000     1.212000000     0.904000000
O    -0.483000000     5.798000000    -0.015000000
H    -0.424000000     4.973000000    -0.497000000
H    -1.356000000     6.133000000    -0.220000000
O    -1.441000000    -5.252000000     3.236000000
H    -1.808000000    -4.562000000     3.788000000
H    -0.904000000    -4.787000000     2.595000000
O     1.009000000     1.759000000     2.331000000
H     0.523000000     1.070000000     1.879000000
H     0.387000000     2.114000000     2.966000000
O    -2.285000000     6.389000000    -4.711000000
H    -2.522000000     7.056000000    -4.066000000
H    -1.365000000     6.198000000    -4.531000000
O    -1.881000000    -5.907000000    -0.061000000
H    -1.856000000    -5.054000000    -0.494000000
H    -1.683000000    -6.534000000    -0.757000000
O     3.134000000    -4.398000000     3.880000000
H     2.511000000    -3.833000000     4.338000000
H     3.985000000    -3.984000000     4.026000000
O     4.586000000     2.292000000    -5.220000000
H     4.111000000     2.011000000    -4.439000000
H     3.909000000     2.643000000    -5.799000000
O    -2.627000000     1.351000000    -5.137000000
H    -1.875000000     1.004000000    -5.617000000
H    -2.968000000     0.601000000    -4.650000000
O     5.038000000    -1.039000000     3.108000000
H     4.997000000    -0.540000000     2.292000000
H     4.668000000    -0.452000000     3.767000000
O     1.615000000    -2.806000000     5.296000000
H     1.691000000    -1.853000000     5.256000000
H     1.335000000    -2.987000000     6.193000000
O    -2.863000000     1.362000000     3.249000000
H    -3.423000000     0.600000000     3.393000000
H    -3.212000000     1.770000000     2.456000000
O    -3.363000000    -1.857000000    -1.729000000
H    -2.697000000    -2.128000000    -2.361000000
H    -3.347000000    -0.901000000    -1.759000000
O     3.034000000    -4.209000000    -3.202000000
H     3.473000000    -4.469000000    -4.012000000
H     2.944000000    -3.259000000    -3.272000000
