161
-3019.29140
C     0.219000000     1.460000000    -0.344000000
H     0.364000000     2.518000000    -0.547000000
C    -0.862000000     0.934000000     0.331000000
H    -1.591000000     1.593000000     0.795000000
C    -0.963000000    -0.442000000     0.506000000
C    -2.245000000    -0.919000000     1.234000000
H    -2.509000000    -0.098000000     1.904000000
H    -3.002000000    -1.116000000     0.472000000
H    -2.035000000    -1.856000000     1.754000000
C    -0.053000000    -1.396000000     0.109000000
H    -0.246000000    -2.447000000     0.306000000
C     1.074000000    -0.803000000    -0.466000000
H     1.820000000    -1.502000000    -0.836000000
C     1.255000000     0.564000000    -0.725000000
C     2.527000000     1.011000000    -1.323000000
O     3.381000000     0.293000000    -1.791000000
O     2.865000000     2.198000000    -1.376000000
O    -2.141000000    -1.409000000    -2.356000000
H    -1.413000000    -1.061000000    -1.840000000
H    -2.074000000    -0.959000000    -3.198000000
O     0.687000000     3.759000000    -2.520000000
H     0.693000000     4.638000000    -2.142000000
H     1.371000000     3.288000000    -2.043000000
O    -7.185000000     0.238000000     3.427000000
H    -6.715000000    -0.596000000     3.419000000
H    -7.916000000     0.095000000     4.028000000
O     5.835000000     4.094000000    -1.922000000
H     5.147000000     3.685000000    -2.447000000
H     6.622000000     4.024000000    -2.462000000
O     4.500000000    -0.166000000     3.169000000
H     4.622000000    -0.022000000     4.107000000
H     3.551000000    -0.182000000     3.050000000
O    -2.003000000     5.458000000    -0.145000000
H    -1.120000000     5.218000000     0.136000000
H    -2.514000000     4.655000000    -0.041000000
O     1.598000000     4.053000000    -5.694000000
H     2.547000000     4.164000000    -5.758000000
H     1.413000000     4.113000000    -4.757000000
O    -4.105000000     0.593000000    -1.943000000
H    -4.623000000     0.771000000    -2.729000000
H    -3.698000000    -0.257000000    -2.113000000
O     8.220000000     1.233000000    -3.225000000
H     7.343000000     0.853000000    -3.273000000
H     8.186000000     1.988000000    -3.813000000
O     3.126000000    -6.355000000     0.266000000
H     3.491000000    -5.562000000    -0.129000000
H     2.282000000    -6.473000000    -0.170000000
O     0.062000000     4.537000000     1.174000000
H     0.596000000     3.774000000     1.391000000
H     0.123000000     5.100000000     1.945000000
O     3.570000000    -3.757000000    -0.832000000
H     3.350000000    -3.267000000    -0.040000000
H     2.872000000    -3.539000000    -1.450000000
O    -4.547000000    -3.338000000     4.143000000
H    -4.593000000    -4.017000000     4.817000000
H    -5.207000000    -3.595000000     3.499000000
O    -5.644000000     1.007000000     1.342000000
H    -6.355000000     0.754000000     1.931000000
H    -4.990000000     1.408000000     1.915000000
O    -1.305000000     2.898000000     3.949000000
H    -0.829000000     3.493000000     4.529000000
H    -0.980000000     2.028000000     4.180000000
O     1.935000000    -3.009000000    -2.865000000
H     2.051000000    -3.600000000    -3.609000000
H     1.067000000    -2.628000000    -2.995000000
O     2.172000000     2.808000000     2.629000000
H     2.482000000     3.293000000     1.865000000
H     2.393000000     1.896000000     2.440000000
O     5.387000000     1.165000000     0.253000000
H     5.054000000     0.436000000     0.776000000
H     4.696000000     1.335000000    -0.387000000
O     3.970000000     2.736000000    -3.768000000
H     4.569000000     1.990000000    -3.798000000
H     3.428000000     2.576000000    -2.995000000
O    -5.124000000     5.063000000    -0.160000000
H    -4.666000000     4.230000000    -0.046000000
H    -4.588000000     5.546000000    -0.789000000
O    -1.718000000     4.102000000    -4.100000000
H    -1.403000000     3.441000000    -4.717000000
H    -1.104000000     4.057000000    -3.367000000
O    -3.471000000     5.294000000     3.362000000
H    -3.001000000     6.059000000     3.694000000
H    -2.783000000     4.696000000     3.073000000
O    -3.917000000    -3.434000000    -2.296000000
H    -4.584000000    -3.313000000    -2.972000000
H    -3.267000000    -2.756000000    -2.478000000
O    -3.076000000    -1.209000000     4.702000000
H    -3.727000000    -1.724000000     4.226000000
H    -3.440000000    -1.117000000     5.583000000
O     5.690000000     0.166000000    -3.237000000
H     4.924000000     0.059000000    -2.673000000
H     5.921000000    -0.725000000    -3.498000000
O     3.331000000     3.995000000     0.686000000
H     3.739000000     4.819000000     0.416000000
H     3.283000000     3.478000000    -0.118000000
O    -5.751000000    -1.879000000     1.125000000
H    -4.931000000    -1.942000000     1.613000000
H    -5.696000000    -1.039000000     0.671000000
O    -2.428000000    -5.783000000     3.776000000
H    -1.634000000    -5.599000000     3.273000000
H    -2.387000000    -5.178000000     4.517000000
O    -0.600000000     0.062000000     4.415000000
H    -1.465000000    -0.335000000     4.304000000
H    -0.325000000    -0.207000000     5.292000000
O    -7.295000000     0.525000000    -0.980000000
H    -6.793000000     0.862000000    -0.237000000
H    -6.632000000     0.258000000    -1.616000000
O    -4.124000000     1.185000000     6.921000000
H    -4.154000000     1.371000000     5.982000000
H    -4.114000000     0.229000000     6.975000000
O     0.523000000    -0.266000000    -6.153000000
H     1.148000000    -0.681000000    -5.559000000
H     0.986000000    -0.212000000    -6.989000000
O    -2.679000000    -5.536000000    -1.445000000
H    -2.998000000    -4.634000000    -1.419000000
H    -2.834000000    -5.871000000    -0.561000000
O    -5.980000000    -4.094000000    -0.651000000
H    -5.261000000    -4.013000000    -1.277000000
H    -5.833000000    -3.386000000    -0.024000000
O    -3.916000000     2.004000000     4.286000000
H    -4.463000000     2.669000000     3.868000000
H    -3.040000000     2.390000000     4.302000000
O    -2.056000000    -3.574000000     5.838000000
H    -2.215000000    -2.698000000     5.488000000
H    -2.806000000    -3.744000000     6.408000000
O     3.148000000     1.221000000    -6.307000000
H     3.667000000     1.964000000    -5.998000000
H     2.823000000     0.807000000    -5.507000000
O     0.666000000    -5.939000000     3.002000000
H     1.365000000    -5.777000000     2.368000000
H     0.381000000    -6.835000000     2.821000000
O     2.625000000    -0.467000000    -4.274000000
H     2.662000000    -0.202000000    -3.355000000
H     3.066000000    -1.316000000    -4.296000000
O     1.623000000     0.105000000     2.816000000
H     0.810000000     0.366000000     3.249000000
H     1.359000000    -0.578000000     2.200000000
O     5.953000000    -2.710000000    -2.212000000
H     6.212000000    -3.337000000    -2.888000000
H     5.103000000    -3.024000000    -1.906000000
O     2.777000000    -2.621000000     1.714000000
H     3.359000000    -2.370000000     2.432000000
H     1.904000000    -2.625000000     2.105000000
O     4.740000000     6.253000000    -0.611000000
H     5.195000000     5.604000000    -1.149000000
H     4.290000000     6.814000000    -1.243000000
O     4.788000000    -2.500000000    -4.929000000
H     5.697000000    -2.398000000    -5.208000000
H     4.775000000    -3.331000000    -4.453000000
O     0.585000000    -3.067000000     3.354000000
H     1.107000000    -2.821000000     4.118000000
H    -0.254000000    -3.351000000     3.719000000
O    -3.765000000     2.734000000    -0.418000000
H    -3.322000000     2.251000000    -1.115000000
H    -4.180000000     2.057000000     0.117000000
O     6.389000000     3.934000000     1.502000000
H     6.102000000     3.325000000     0.822000000
H     5.588000000     4.161000000     1.974000000
O     8.273000000     1.049000000    -0.496000000
H     7.381000000     1.369000000    -0.364000000
H     8.336000000     0.899000000    -1.440000000
