161
-3053.06776
C    -0.161000000     1.362000000    -0.612000000
H    -0.316000000     2.381000000    -0.956000000
C    -1.164000000     0.682000000     0.096000000
H    -2.157000000     1.123000000     0.143000000
C    -0.841000000    -0.535000000     0.714000000
C    -1.932000000    -1.289000000     1.382000000
H    -1.689000000    -1.396000000     2.441000000
H    -2.783000000    -0.608000000     1.440000000
H    -2.037000000    -2.302000000     0.988000000
C     0.375000000    -1.182000000     0.445000000
H     0.632000000    -2.091000000     0.982000000
C     1.312000000    -0.541000000    -0.237000000
H     2.337000000    -0.887000000    -0.344000000
C     1.084000000     0.710000000    -0.872000000
C     2.161000000     1.366000000    -1.625000000
O     3.105000000     0.707000000    -2.042000000
O     2.073000000     2.508000000    -1.946000000
O    -0.891000000    -1.827000000    -3.072000000
H     0.050000000    -1.970000000    -2.975000000
H    -0.978000000    -1.359000000    -3.903000000
O     1.152000000     5.025000000    -2.010000000
H     1.742000000     5.464000000    -2.622000000
H     1.466000000     4.121000000    -1.980000000
O    -0.736000000     6.717000000    -2.957000000
H    -0.269000000     7.121000000    -3.688000000
H    -0.086000000     6.152000000    -2.539000000
O    -5.613000000     1.791000000    -2.301000000
H    -5.175000000     1.276000000    -2.978000000
H    -5.379000000     2.697000000    -2.499000000
O     4.880000000     4.997000000    -3.199000000
H     4.093000000     5.539000000    -3.152000000
H     5.604000000     5.617000000    -3.118000000
O     4.397000000     0.292000000     1.812000000
H     3.523000000     0.398000000     2.187000000
H     4.976000000     0.747000000     2.424000000
O    -2.393000000     6.139000000     0.680000000
H    -1.752000000     5.428000000     0.677000000
H    -3.119000000     5.808000000     0.152000000
O     0.996000000     4.060000000    -5.902000000
H     1.804000000     3.662000000    -5.581000000
H     0.367000000     3.932000000    -5.192000000
O    -4.930000000     0.296000000     0.013000000
H    -5.362000000     0.784000000    -0.688000000
H    -4.402000000    -0.360000000    -0.441000000
O    -2.577000000    -4.883000000     0.432000000
H    -2.296000000    -4.817000000     1.345000000
H    -3.322000000    -4.286000000     0.367000000
O     2.800000000    -5.620000000     1.102000000
H     3.606000000    -5.686000000     1.614000000
H     2.939000000    -6.208000000     0.360000000
O    -0.084000000     4.845000000     0.621000000
H     0.363000000     4.755000000    -0.221000000
H     0.435000000     5.491000000     1.100000000
O     4.421000000    -3.980000000    -1.070000000
H     4.174000000    -3.846000000    -0.155000000
H     4.243000000    -4.906000000    -1.234000000
O     0.685000000     2.190000000     5.190000000
H     0.338000000     2.639000000     5.961000000
H     0.646000000     1.261000000     5.416000000
O     2.982000000    -4.023000000    -4.563000000
H     2.306000000    -3.971000000    -3.888000000
H     3.411000000    -3.167000000    -4.540000000
O     2.759000000     3.192000000     0.728000000
H     2.104000000     2.952000000     0.072000000
H     3.598000000     3.074000000     0.283000000
O     5.580000000     0.419000000    -0.774000000
H     5.239000000     0.467000000     0.120000000
H     4.802000000     0.306000000    -1.320000000
O     3.072000000     2.560000000    -4.315000000
H     3.953000000     2.917000000    -4.202000000
H     2.849000000     2.197000000    -3.457000000
O    -1.069000000     3.371000000    -4.238000000
H    -1.495000000     2.550000000    -4.484000000
H    -0.933000000     3.296000000    -3.293000000
O     1.041000000    -4.007000000    -2.377000000
H     0.084000000    -3.972000000    -2.349000000
H     1.280000000    -4.584000000    -1.651000000
O    -5.157000000    -3.437000000     3.516000000
H    -5.293000000    -2.496000000     3.406000000
H    -5.897000000    -3.841000000     3.063000000
O    -0.619000000     3.389000000     3.143000000
H    -0.214000000     3.557000000     2.292000000
H     0.106000000     3.111000000     3.703000000
O    -6.862000000    -1.775000000     0.780000000
H    -7.671000000    -1.460000000     1.182000000
H    -6.295000000    -1.005000000     0.748000000
O    -3.743000000    -1.244000000    -2.328000000
H    -4.017000000    -1.367000000    -3.236000000
H    -2.820000000    -0.997000000    -2.387000000
O    -3.229000000    -1.224000000     4.571000000
H    -4.031000000    -1.193000000     4.049000000
H    -3.133000000    -0.336000000     4.915000000
O     7.584000000     1.229000000    -2.692000000
H     8.087000000     1.950000000    -2.312000000
H     6.968000000     0.978000000    -2.004000000
O     5.023000000     3.253000000    -0.965000000
H     5.035000000     3.762000000    -1.775000000
H     4.999000000     2.341000000    -1.254000000
O    -5.600000000    -0.689000000     3.256000000
H    -6.450000000    -0.810000000     3.681000000
H    -5.698000000     0.117000000     2.750000000
O    -1.542000000    -5.106000000     3.029000000
H    -0.809000000    -5.720000000     2.978000000
H    -1.221000000    -4.397000000     3.586000000
O    -0.674000000     0.038000000     6.125000000
H    -0.799000000    -0.819000000     5.717000000
H    -0.360000000    -0.160000000     7.007000000
O    -5.513000000     1.857000000     2.014000000
H    -4.831000000     2.524000000     2.083000000
H    -5.236000000     1.305000000     1.282000000
O    -3.496000000    -6.803000000     3.695000000
H    -2.833000000    -6.183000000     3.392000000
H    -4.178000000    -6.771000000     3.024000000
O     1.974000000    -0.418000000    -5.706000000
H     2.436000000    -0.767000000    -4.944000000
H     2.288000000     0.483000000    -5.785000000
O    -1.767000000    -4.525000000    -2.354000000
H    -1.872000000    -3.604000000    -2.590000000
H    -1.896000000    -4.546000000    -1.406000000
O    -4.775000000    -3.207000000    -0.542000000
H    -4.564000000    -2.685000000    -1.316000000
H    -5.289000000    -2.619000000     0.011000000
O    -3.167000000     1.148000000     6.202000000
H    -3.168000000     2.098000000     6.088000000
H    -2.241000000     0.918000000     6.280000000
O    -1.138000000    -2.575000000     5.120000000
H    -1.938000000    -2.360000000     4.641000000
H    -1.422000000    -3.186000000     5.799000000
O     2.699000000     4.106000000     3.289000000
H     2.768000000     3.707000000     2.421000000
H     3.159000000     3.500000000     3.869000000
O    -4.188000000    -6.310000000    -1.351000000
H    -4.483000000    -5.634000000    -1.961000000
H    -3.563000000    -5.862000000    -0.780000000
O     1.035000000    -5.927000000     3.042000000
H     1.332000000    -5.225000000     3.622000000
H     1.461000000    -5.742000000     2.205000000
O     3.624000000    -1.285000000    -3.708000000
H     3.417000000    -0.596000000    -3.076000000
H     4.579000000    -1.340000000    -3.698000000
O     1.867000000     0.728000000     3.039000000
H     1.461000000     0.837000000     2.180000000
H     1.152000000     0.438000000     3.606000000
O     3.901000000    -2.803000000     1.241000000
H     3.903000000    -1.855000000     1.106000000
H     2.974000000    -3.043000000     1.240000000
O     3.467000000     7.036000000    -1.061000000
H     2.681000000     6.698000000    -0.631000000
H     3.161000000     7.793000000    -1.560000000
O     6.460000000    -1.035000000    -4.004000000
H     6.794000000    -0.299000000    -3.491000000
H     6.958000000    -1.005000000    -4.820000000
O     2.519000000     6.220000000    -4.146000000
H     3.034000000     6.879000000    -4.611000000
H     2.101000000     5.709000000    -4.839000000
O     1.662000000    -3.426000000     3.829000000
H     2.393000000    -2.906000000     4.164000000
H     0.904000000    -3.125000000     4.330000000
O    -3.419000000     3.458000000     2.422000000
H    -2.465000000     3.478000000     2.490000000
H    -3.724000000     3.934000000     3.194000000
