161
-3040.54244
C    -0.191000000     1.507000000     0.167000000
H    -0.257000000     2.555000000     0.450000000
C    -0.962000000     0.489000000     0.735000000
H    -1.773000000     0.712000000     1.424000000
C    -0.765000000    -0.868000000     0.480000000
C    -1.622000000    -1.905000000     1.124000000
H    -2.588000000    -1.477000000     1.403000000
H    -1.732000000    -2.719000000     0.404000000
H    -1.104000000    -2.311000000     1.995000000
C     0.284000000    -1.222000000    -0.398000000
H     0.358000000    -2.292000000    -0.577000000
C     1.124000000    -0.221000000    -0.956000000
H     1.956000000    -0.586000000    -1.553000000
C     0.900000000     1.123000000    -0.637000000
C     1.896000000     2.095000000    -1.166000000
O     2.969000000     1.821000000    -1.691000000
O     1.515000000     3.295000000    -1.201000000
O    -3.035000000    -2.628000000    -1.888000000
H    -3.070000000    -1.676000000    -1.989000000
H    -3.666000000    -2.819000000    -1.194000000
O     6.630000000     1.800000000    -3.741000000
H     7.060000000     2.365000000    -3.098000000
H     5.712000000     2.071000000    -3.720000000
O     2.095000000     7.901000000    -1.010000000
H     2.207000000     7.371000000    -1.799000000
H     1.531000000     8.624000000    -1.285000000
O     3.686000000     6.837000000     1.111000000
H     3.063000000     7.242000000     0.507000000
H     3.363000000     5.943000000     1.224000000
O     6.029000000    -2.470000000    -1.292000000
H     5.318000000    -1.896000000    -1.578000000
H     6.213000000    -2.194000000    -0.395000000
O     1.297000000     2.511000000    -6.419000000
H     0.614000000     1.900000000    -6.697000000
H     1.790000000     2.032000000    -5.752000000
O    -0.563000000    -6.042000000    -3.873000000
H    -0.665000000    -5.096000000    -3.769000000
H    -0.737000000    -6.399000000    -3.001000000
O    -3.258000000     5.668000000     0.597000000
H    -3.754000000     5.497000000    -0.204000000
H    -3.389000000     4.885000000     1.132000000
O     4.329000000     3.109000000    -3.592000000
H     4.354000000     3.942000000    -3.123000000
H     3.699000000     2.578000000    -3.105000000
O    -1.062000000    -5.092000000     0.942000000
H    -0.861000000    -4.756000000     1.815000000
H    -2.000000000    -5.282000000     0.968000000
O    -3.936000000    -4.505000000     1.414000000
H    -3.545000000    -4.121000000     2.198000000
H    -4.834000000    -4.174000000     1.408000000
O    -5.804000000    -1.870000000    -2.281000000
H    -5.606000000    -1.104000000    -1.743000000
H    -5.246000000    -1.771000000    -3.053000000
O     4.491000000     5.066000000    -1.508000000
H     4.430000000     4.304000000    -0.932000000
H     4.955000000     5.722000000    -0.988000000
O    -2.821000000     0.633000000    -1.748000000
H    -3.405000000     1.381000000    -1.868000000
H    -2.337000000     0.833000000    -0.947000000
O    -1.692000000    -1.684000000     7.382000000
H    -1.714000000    -1.548000000     6.435000000
H    -2.583000000    -1.492000000     7.672000000
O    -4.952000000     1.889000000     3.032000000
H    -5.874000000     1.690000000     2.869000000
H    -4.970000000     2.653000000     3.608000000
O    -2.560000000     5.773000000     3.276000000
H    -2.614000000     4.858000000     3.003000000
H    -2.778000000     6.272000000     2.489000000
O    -1.206000000    -2.893000000    -4.089000000
H    -1.769000000    -2.543000000    -3.399000000
H    -1.724000000    -2.804000000    -4.889000000
O     4.574000000    -0.364000000    -2.042000000
H     4.014000000     0.335000000    -1.703000000
H     5.123000000     0.066000000    -2.698000000
O     1.713000000     2.051000000     4.934000000
H     0.763000000     2.074000000     5.044000000
H     1.845000000     1.655000000     4.073000000
O    -4.272000000    -5.471000000    -1.096000000
H    -4.251000000    -5.219000000    -0.173000000
H    -5.112000000    -5.917000000    -1.203000000
O     0.425000000     5.600000000    -0.334000000
H     1.117000000     6.242000000    -0.493000000
H     0.819000000     4.760000000    -0.567000000
O    -2.410000000    -3.549000000     3.867000000
H    -1.527000000    -3.728000000     3.545000000
H    -2.294000000    -2.842000000     4.503000000
O     3.317000000    -1.481000000    -5.540000000
H     3.621000000    -2.285000000    -5.118000000
H     3.765000000    -1.470000000    -6.386000000
O    -6.130000000     0.089000000    -0.332000000
H    -5.738000000     0.910000000    -0.034000000
H    -6.913000000     0.358000000    -0.812000000
O    -0.710000000     4.397000000    -5.478000000
H    -0.163000000     3.754000000    -5.929000000
H    -0.750000000     4.085000000    -4.574000000
O    -2.114000000    -0.782000000     4.678000000
H    -1.629000000    -0.432000000     3.930000000
H    -2.525000000    -0.015000000     5.077000000
O    -0.708000000     3.531000000     5.120000000
H    -0.732000000     4.232000000     5.771000000
H    -0.640000000     3.985000000     4.281000000
O     2.936000000    -4.595000000    -0.319000000
H     2.840000000    -4.410000000    -1.253000000
H     3.739000000    -4.139000000    -0.067000000
O     7.448000000     3.104000000    -1.444000000
H     8.003000000     2.705000000    -0.773000000
H     6.559000000     3.019000000    -1.100000000
O     1.193000000    -3.404000000    -5.033000000
H     0.336000000    -3.201000000    -4.659000000
H     1.016000000    -4.083000000    -5.684000000
O    -5.000000000    -4.272000000     4.291000000
H    -4.985000000    -5.082000000     4.800000000
H    -4.080000000    -4.090000000     4.101000000
O     2.315000000     6.285000000    -3.102000000
H     2.673000000     5.405000000    -2.987000000
H     2.483000000     6.493000000    -4.021000000
O    -0.239000000     4.286000000     2.084000000
H     0.502000000     4.645000000     2.572000000
H    -0.409000000     4.930000000     1.397000000
O     2.630000000    -3.874000000    -2.834000000
H     2.061000000    -3.629000000    -3.565000000
H     3.240000000    -3.141000000    -2.749000000
O    -1.920000000     1.329000000    -4.066000000
H    -1.502000000     1.924000000    -3.444000000
H    -2.203000000     0.586000000    -3.533000000
O    -7.433000000    -1.611000000     2.125000000
H    -6.926000000    -1.321000000     1.366000000
H    -7.378000000    -2.566000000     2.098000000
O     4.984000000     2.593000000    -0.314000000
H     4.269000000     2.328000000    -0.893000000
H     4.646000000     2.440000000     0.568000000
O    -1.294000000     7.732000000    -0.667000000
H    -0.671000000     7.040000000    -0.445000000
H    -2.142000000     7.391000000    -0.383000000
O     0.026000000    -4.657000000     3.671000000
H     0.289000000    -5.577000000     3.677000000
H     0.379000000    -4.302000000     4.488000000
O     2.838000000     1.194000000     2.035000000
H     2.333000000     0.382000000     1.998000000
H     3.717000000     0.918000000     2.296000000
O     2.763000000     3.872000000     1.430000000
H     2.184000000     3.631000000     0.706000000
H     2.957000000     3.043000000     1.867000000
O     3.462000000     4.179000000    -5.862000000
H     2.671000000     3.648000000    -5.957000000
H     3.909000000     3.809000000    -5.101000000
O    -2.157000000    -6.957000000    -1.752000000
H    -2.976000000    -6.465000000    -1.700000000
H    -1.578000000    -6.525000000    -1.123000000
O    -0.714000000     3.354000000    -2.663000000
H    -1.335000000     3.699000000    -2.022000000
H     0.132000000     3.382000000    -2.216000000
O     0.970000000    -6.619000000    -0.333000000
H     0.205000000    -6.210000000     0.071000000
H     1.612000000    -5.912000000    -0.400000000
O    -2.909000000     3.365000000     1.832000000
H    -3.260000000     2.676000000     2.396000000
H    -1.968000000     3.365000000     2.011000000
O     2.134000000     0.870000000    -4.448000000
H     2.549000000     0.061000000    -4.746000000
H     2.307000000     0.896000000    -3.507000000
