161
-3057.94687
C     0.012000000     0.255000000    -1.493000000
H    -0.063000000     0.374000000    -2.571000000
C    -1.108000000     0.068000000    -0.695000000
H    -2.117000000     0.187000000    -1.083000000
C    -0.981000000    -0.178000000     0.624000000
C    -2.218000000    -0.307000000     1.425000000
H    -2.823000000    -1.170000000     1.140000000
H    -1.984000000    -0.467000000     2.480000000
H    -2.780000000     0.629000000     1.394000000
C     0.228000000    -0.266000000     1.276000000
H     0.268000000    -0.350000000     2.359000000
C     1.372000000    -0.091000000     0.496000000
H     2.277000000    -0.053000000     1.097000000
C     1.280000000     0.175000000    -0.880000000
C     2.545000000     0.293000000    -1.664000000
O     3.659000000     0.124000000    -1.152000000
O     2.436000000     0.774000000    -2.760000000
O     1.498000000    -0.304000000    -5.043000000
H     1.105000000     0.447000000    -5.488000000
H     1.930000000     0.072000000    -4.276000000
O     3.905000000    -1.094000000    -6.009000000
H     3.118000000    -0.829000000    -5.534000000
H     3.759000000    -2.016000000    -6.219000000
O     2.568000000     3.640000000     2.061000000
H     2.786000000     3.012000000     1.373000000
H     3.184000000     3.446000000     2.767000000
O     0.310000000     1.741000000    -5.982000000
H    -0.033000000     1.213000000    -6.704000000
H     0.433000000     2.611000000    -6.360000000
O     1.515000000    -1.921000000     6.664000000
H     2.109000000    -2.672000000     6.664000000
H     1.874000000    -1.332000000     6.000000000
O     4.507000000     5.141000000    -5.272000000
H     5.146000000     4.905000000    -5.945000000
H     4.381000000     4.337000000    -4.769000000
O     0.875000000    -3.321000000     0.851000000
H     1.608000000    -2.788000000     0.542000000
H     0.561000000    -3.773000000     0.068000000
O    -6.937000000     2.704000000     2.290000000
H    -7.301000000     2.341000000     3.098000000
H    -7.544000000     3.403000000     2.047000000
O     4.338000000     4.964000000    -0.182000000
H     4.432000000     4.022000000    -0.039000000
H     4.124000000     5.317000000     0.681000000
O    -1.931000000    -4.802000000     5.397000000
H    -1.133000000    -4.487000000     5.821000000
H    -1.871000000    -4.475000000     4.499000000
O    -4.058000000    -3.237000000    -1.070000000
H    -4.734000000    -3.039000000    -0.421000000
H    -3.383000000    -3.704000000    -0.578000000
O     4.073000000    -2.572000000     3.608000000
H     4.033000000    -2.439000000     2.661000000
H     3.509000000    -1.888000000     3.970000000
O     3.884000000     2.796000000    -3.693000000
H     4.486000000     2.313000000    -4.258000000
H     3.330000000     2.120000000    -3.301000000
O    -0.697000000    -2.907000000    -2.382000000
H    -0.417000000    -2.092000000    -1.966000000
H    -0.699000000    -2.710000000    -3.319000000
O    -4.589000000     4.501000000     2.746000000
H    -4.736000000     5.308000000     2.252000000
H    -5.232000000     3.885000000     2.397000000
O     5.558000000    -0.102000000     2.520000000
H     6.069000000     0.687000000     2.340000000
H     5.374000000    -0.058000000     3.459000000
O     4.282000000    -1.731000000     0.763000000
H     3.953000000    -1.180000000     0.054000000
H     4.931000000    -1.186000000     1.208000000
O    -1.486000000     4.809000000    -2.637000000
H    -0.827000000     5.226000000    -3.191000000
H    -0.984000000     4.233000000    -2.060000000
O    -2.936000000     2.127000000     4.226000000
H    -2.638000000     2.314000000     3.335000000
H    -3.362000000     2.936000000     4.510000000
O    -1.555000000    -4.566000000    -0.332000000
H    -1.244000000    -4.068000000    -1.088000000
H    -1.511000000    -5.480000000    -0.613000000
O     4.542000000     2.241000000     0.053000000
H     5.385000000     2.302000000    -0.397000000
H     4.209000000     1.374000000    -0.177000000
O    -6.247000000    -1.159000000    -0.425000000
H    -6.265000000    -0.214000000    -0.272000000
H    -6.381000000    -1.544000000     0.441000000
O    -0.744000000    -3.051000000     3.245000000
H    -1.551000000    -3.373000000     2.844000000
H    -0.153000000    -2.901000000     2.507000000
O    -2.671000000    -4.557000000     2.444000000
H    -2.465000000    -4.514000000     1.511000000
H    -3.207000000    -5.345000000     2.535000000
O    -3.138000000     2.184000000    -2.955000000
H    -2.643000000     2.875000000    -2.515000000
H    -4.033000000     2.521000000    -2.999000000
O    -6.471000000    -1.397000000     2.197000000
H    -6.733000000    -0.545000000     2.545000000
H    -5.903000000    -1.767000000     2.872000000
O     4.175000000    -4.406000000     0.774000000
H     4.156000000    -3.471000000     0.975000000
H     4.255000000    -4.445000000    -0.179000000
O     6.146000000     1.444000000    -4.938000000
H     7.007000000     1.845000000    -5.050000000
H     5.987000000     0.982000000    -5.761000000
O    -0.223000000    -2.517000000    -5.004000000
H     0.477000000    -1.896000000    -5.208000000
H    -0.689000000    -2.633000000    -5.832000000
O    -6.339000000     1.331000000    -4.139000000
H    -6.040000000     0.653000000    -3.533000000
H    -5.842000000     1.171000000    -4.941000000
O     0.417000000     1.575000000     4.628000000
H     0.027000000     2.119000000     3.943000000
H     0.038000000     1.908000000     5.442000000
O    -0.099000000     3.419000000     2.511000000
H     0.837000000     3.546000000     2.355000000
H    -0.472000000     3.295000000     1.638000000
O     3.875000000    -4.777000000    -1.910000000
H     2.992000000    -4.973000000    -2.223000000
H     4.116000000    -3.968000000    -2.362000000
O    -3.424000000     4.819000000    -0.558000000
H    -3.089000000     4.174000000     0.065000000
H    -2.645000000     5.277000000    -0.872000000
O    -1.105000000    -1.702000000     5.756000000
H    -0.167000000    -1.638000000     5.938000000
H    -1.162000000    -2.275000000     4.992000000
O     6.186000000    -0.261000000    -2.692000000
H     5.483000000     0.009000000    -2.102000000
H     6.207000000     0.419000000    -3.366000000
O    -3.989000000    -1.834000000     3.553000000
H    -3.593000000    -2.641000000     3.225000000
H    -3.245000000    -1.264000000     3.747000000
O     6.733000000    -3.011000000    -0.529000000
H     5.972000000    -2.633000000    -0.970000000
H     6.594000000    -2.816000000     0.398000000
O    -0.698000000     3.093000000    -0.089000000
H    -0.822000000     2.150000000    -0.200000000
H    -0.054000000     3.330000000    -0.756000000
O    -6.071000000     1.428000000    -0.334000000
H    -5.767000000     2.194000000    -0.821000000
H    -6.174000000     1.741000000     0.565000000
O    -2.734000000     0.719000000    -5.614000000
H    -3.095000000     0.601000000    -4.735000000
H    -1.793000000     0.574000000    -5.508000000
O    -3.008000000     0.262000000     6.492000000
H    -2.964000000     0.847000000     5.735000000
H    -2.418000000    -0.459000000     6.271000000
O    -4.948000000    -0.635000000    -2.793000000
H    -4.118000000    -0.948000000    -2.433000000
H    -5.572000000    -0.731000000    -2.072000000
O     2.472000000    -0.309000000     4.573000000
H     1.802000000     0.346000000     4.376000000
H     3.287000000     0.191000000     4.626000000
O     1.350000000    -4.941000000    -2.705000000
H     0.766000000    -5.691000000    -2.816000000
H     0.763000000    -4.195000000    -2.583000000
O     1.011000000     3.296000000    -2.232000000
H     1.023000000     2.569000000    -2.855000000
H     1.801000000     3.798000000    -2.434000000
O     2.712000000     5.810000000    -2.794000000
H     3.248000000     5.382000000    -3.462000000
H     3.345000000     6.168000000    -2.172000000
O     4.507000000    -2.573000000    -3.181000000
H     4.844000000    -1.682000000    -3.079000000
H     4.723000000    -2.809000000    -4.083000000
