161
-3026.28940
C    -0.020000000     0.455000000    -1.423000000
H    -0.150000000     0.795000000    -2.447000000
C    -0.989000000    -0.345000000    -0.771000000
H    -1.822000000    -0.714000000    -1.363000000
C    -0.819000000    -0.701000000     0.548000000
C    -1.756000000    -1.653000000     1.158000000
H    -2.044000000    -1.360000000     2.170000000
H    -2.656000000    -1.690000000     0.540000000
H    -1.351000000    -2.667000000     1.145000000
C     0.206000000    -0.203000000     1.354000000
H     0.268000000    -0.637000000     2.349000000
C     1.166000000     0.653000000     0.727000000
H     1.948000000     1.027000000     1.383000000
C     1.089000000     0.874000000    -0.653000000
C     2.067000000     1.758000000    -1.404000000
O     3.130000000     2.116000000    -0.877000000
O     1.725000000     2.292000000    -2.442000000
O     3.131000000    -0.525000000    -6.145000000
H     3.558000000    -0.202000000    -5.351000000
H     2.987000000    -1.457000000    -5.977000000
O    -2.039000000     1.486000000    -7.038000000
H    -1.296000000     0.883000000    -7.012000000
H    -2.791000000     0.931000000    -7.243000000
O    -3.197000000    -5.438000000    -0.072000000
H    -2.315000000    -5.073000000    -0.002000000
H    -3.590000000    -5.283000000     0.786000000
O    -3.031000000     1.352000000    -2.949000000
H    -3.273000000     1.194000000    -3.861000000
H    -2.306000000     1.975000000    -2.998000000
O     4.492000000     5.336000000     1.348000000
H     4.840000000     4.726000000     1.999000000
H     5.236000000     5.527000000     0.776000000
O     1.951000000     2.254000000    -5.302000000
H     1.944000000     2.325000000    -4.348000000
H     1.693000000     1.349000000    -5.477000000
O     2.601000000    -0.372000000     6.526000000
H     1.967000000    -0.803000000     5.954000000
H     2.635000000     0.530000000     6.209000000
O     7.082000000     3.864000000    -2.625000000
H     6.682000000     4.708000000    -2.835000000
H     7.784000000     3.765000000    -3.268000000
O     3.084000000    -3.673000000     3.319000000
H     2.909000000    -2.999000000     3.976000000
H     3.533000000    -3.209000000     2.613000000
O     1.602000000     4.871000000    -3.136000000
H     1.834000000     4.016000000    -2.772000000
H     1.289000000     5.375000000    -2.385000000
O    -6.308000000    -4.310000000    -0.582000000
H    -7.152000000    -4.052000000    -0.953000000
H    -6.016000000    -3.540000000    -0.094000000
O     4.686000000    -2.273000000     1.690000000
H     5.503000000    -2.217000000     2.186000000
H     4.483000000    -1.367000000     1.458000000
O     4.069000000     7.506000000    -1.749000000
H     3.636000000     7.518000000    -0.895000000
H     4.120000000     6.578000000    -1.977000000
O    -5.179000000    -2.327000000     3.859000000
H    -5.269000000    -3.269000000     4.004000000
H    -5.941000000    -2.093000000     3.329000000
O     0.002000000    -3.031000000    -3.937000000
H     0.382000000    -2.780000000    -3.096000000
H    -0.659000000    -2.361000000    -4.112000000
O     0.795000000    -4.682000000     1.960000000
H     0.598000000    -5.418000000     2.540000000
H     1.671000000    -4.398000000     2.223000000
O     5.506000000     1.251000000     3.856000000
H     6.297000000     0.898000000     3.448000000
H     5.423000000     2.133000000     3.494000000
O     4.866000000     0.211000000     0.210000000
H     4.201000000     0.819000000    -0.111000000
H     5.585000000     0.772000000     0.499000000
O     0.655000000    -1.780000000     5.404000000
H     0.023000000    -2.297000000     4.904000000
H     0.166000000    -1.478000000     6.169000000
O    -2.105000000    -1.463000000    -4.542000000
H    -2.789000000    -1.208000000    -5.161000000
H    -2.574000000    -1.637000000    -3.726000000
O     2.170000000     4.004000000     0.911000000
H     2.474000000     3.233000000     0.434000000
H     2.963000000     4.515000000     1.071000000
O     4.519000000     4.760000000    -1.861000000
H     5.408000000     4.520000000    -1.601000000
H     4.044000000     3.929000000    -1.886000000
O    -1.498000000     2.569000000     4.132000000
H    -1.868000000     2.090000000     3.390000000
H    -0.663000000     2.905000000     3.807000000
O    -3.687000000     2.184000000     5.593000000
H    -4.018000000     1.288000000     5.528000000
H    -2.931000000     2.203000000     5.006000000
O    -0.760000000     3.360000000    -2.961000000
H     0.144000000     3.125000000    -3.169000000
H    -0.792000000     4.310000000    -3.075000000
O    -1.465000000     2.820000000     0.316000000
H    -1.276000000     2.981000000    -0.608000000
H    -1.368000000     1.873000000     0.418000000
O    -5.502000000    -1.029000000    -3.238000000
H    -4.774000000    -1.589000000    -2.965000000
H    -5.777000000    -0.586000000    -2.436000000
O     7.646000000     0.193000000    -2.759000000
H     6.787000000     0.614000000    -2.801000000
H     7.562000000    -0.451000000    -2.055000000
O    -5.586000000     0.571000000     2.317000000
H    -6.349000000     0.777000000     1.776000000
H    -5.917000000     0.593000000     3.215000000
O    -4.510000000     1.399000000    -0.752000000
H    -4.188000000     0.830000000    -0.053000000
H    -3.958000000     1.188000000    -1.506000000
O    -1.222000000    -3.396000000     4.495000000
H    -2.008000000    -3.851000000     4.799000000
H    -0.822000000    -4.001000000     3.870000000
O    -0.235000000    -0.487000000    -6.469000000
H    -0.418000000    -1.084000000    -5.744000000
H     0.713000000    -0.544000000    -6.593000000
O    -3.227000000    -0.612000000     4.703000000
H    -4.020000000    -1.036000000     4.376000000
H    -2.691000000    -1.332000000     5.038000000
O     7.195000000     1.160000000     1.207000000
H     7.942000000     0.662000000     1.540000000
H     7.580000000     1.964000000     0.858000000
O     0.370000000    -7.766000000     0.267000000
H     0.964000000    -7.943000000     0.996000000
H     0.340000000    -6.811000000     0.208000000
O    -0.184000000    -5.193000000    -0.477000000
H     0.132000000    -4.705000000     0.283000000
H     0.529000000    -5.133000000    -1.113000000
O    -2.823000000     1.079000000     2.242000000
H    -3.778000000     1.021000000     2.285000000
H    -2.515000000     0.309000000     2.721000000
O    -3.684000000    -6.051000000     2.644000000
H    -3.225000000    -6.889000000     2.706000000
H    -3.723000000    -5.732000000     3.545000000
O     5.234000000     1.701000000    -2.605000000
H     4.489000000     1.894000000    -2.036000000
H     5.658000000     2.549000000    -2.741000000
O     6.755000000    -1.554000000    -0.954000000
H     5.960000000    -1.125000000    -0.639000000
H     6.545000000    -2.487000000    -0.940000000
O     1.104000000     3.525000000     3.480000000
H     1.104000000     4.376000000     3.917000000
H     1.462000000     3.702000000     2.611000000
O    -3.838000000    -3.270000000    -2.647000000
H    -4.330000000    -3.767000000    -3.302000000
H    -3.542000000    -3.930000000    -2.020000000
O     2.702000000     4.848000000    -5.722000000
H     2.411000000     5.110000000    -4.849000000
H     2.596000000     3.896000000    -5.735000000
O    -5.191000000    -2.088000000     0.521000000
H    -4.293000000    -2.414000000     0.462000000
H    -5.110000000    -1.238000000     0.953000000
O     0.700000000     5.626000000    -0.719000000
H     0.979000000     5.166000000     0.073000000
H    -0.187000000     5.928000000    -0.520000000
O     2.612000000     2.044000000     5.398000000
H     3.259000000     2.747000000     5.451000000
H     1.855000000     2.447000000     4.973000000
O    -0.207000000     6.475000000    -4.700000000
H    -0.227000000     7.189000000    -4.062000000
H     0.547000000     5.945000000    -4.442000000
O     4.273000000    -0.776000000    -3.661000000
H     4.553000000     0.075000000    -3.325000000
H     3.779000000    -1.168000000    -2.941000000
