161
-3017.06233
C    -0.103000000     0.910000000    -1.249000000
H    -0.255000000     1.595000000    -2.078000000
C    -1.134000000     0.234000000    -0.603000000
H    -2.091000000     0.155000000    -1.114000000
C    -0.903000000    -0.667000000     0.466000000
C    -2.062000000    -1.353000000     1.183000000
H    -1.638000000    -1.649000000     2.145000000
H    -2.988000000    -0.783000000     1.273000000
H    -2.409000000    -2.179000000     0.559000000
C     0.371000000    -0.910000000     0.912000000
H     0.617000000    -1.543000000     1.761000000
C     1.358000000    -0.141000000     0.349000000
H     2.342000000    -0.262000000     0.793000000
C     1.122000000     0.804000000    -0.699000000
C     2.271000000     1.651000000    -1.147000000
O     3.210000000     1.877000000    -0.383000000
O     2.298000000     2.256000000    -2.175000000
O     1.432000000    -0.093000000    -3.829000000
H     1.345000000    -0.905000000    -3.329000000
H     1.179000000     0.595000000    -3.213000000
O     2.610000000     0.250000000    -6.348000000
H     2.305000000     0.154000000    -5.446000000
H     2.123000000    -0.413000000    -6.837000000
O    -2.055000000    -1.034000000    -3.283000000
H    -2.462000000    -0.186000000    -3.103000000
H    -2.714000000    -1.514000000    -3.785000000
O     2.933000000     3.555000000     3.935000000
H     3.476000000     2.805000000     3.689000000
H     3.082000000     4.196000000     3.241000000
O     0.600000000     2.727000000    -4.297000000
H     1.247000000     2.882000000    -4.986000000
H     1.117000000     2.667000000    -3.493000000
O    -5.376000000     4.028000000    -1.786000000
H    -5.002000000     4.393000000    -0.985000000
H    -4.961000000     3.171000000    -1.876000000
O     5.165000000     4.475000000    -5.261000000
H     6.117000000     4.454000000    -5.167000000
H     4.834000000     4.280000000    -4.384000000
O     5.357000000     6.556000000     0.404000000
H     4.601000000     6.729000000     0.964000000
H     5.285000000     5.627000000     0.185000000
O    -4.468000000    -4.948000000    -0.360000000
H    -4.162000000    -5.692000000     0.160000000
H    -3.709000000    -4.692000000    -0.883000000
O     4.857000000    -2.426000000     3.039000000
H     5.476000000    -2.033000000     3.654000000
H     4.823000000    -1.811000000     2.307000000
O     4.236000000     4.012000000    -2.845000000
H     4.575000000     4.047000000    -1.950000000
H     3.543000000     3.354000000    -2.813000000
O    -4.690000000    -3.868000000     3.099000000
H    -3.749000000    -4.021000000     3.009000000
H    -4.757000000    -3.155000000     3.733000000
O     0.500000000    -1.935000000    -1.968000000
H     0.523000000    -1.271000000    -1.278000000
H    -0.403000000    -1.921000000    -2.284000000
O     5.213000000     0.467000000     4.100000000
H     5.957000000    -0.029000000     4.439000000
H     4.770000000     0.799000000     4.881000000
O     5.047000000     0.128000000     1.228000000
H     4.957000000     0.960000000     0.763000000
H     5.318000000     0.376000000     2.112000000
O    -1.572000000     4.766000000    -0.343000000
H    -1.047000000     4.108000000     0.111000000
H    -1.056000000     5.570000000    -0.282000000
O    -2.311000000     1.944000000     3.927000000
H    -3.098000000     1.675000000     3.453000000
H    -2.606000000     2.653000000     4.497000000
O    -2.104000000    -4.434000000    -1.734000000
H    -2.274000000    -4.157000000    -2.635000000
H    -1.871000000    -5.359000000    -1.808000000
O     1.839000000     4.843000000     1.466000000
H     1.711000000     5.024000000     0.534000000
H     1.231000000     4.128000000     1.656000000
O     5.138000000     3.966000000    -0.374000000
H     5.840000000     3.344000000    -0.566000000
H     4.359000000     3.421000000    -0.261000000
O    -3.897000000     2.808000000     1.320000000
H    -3.445000000     3.630000000     1.510000000
H    -4.398000000     2.621000000     2.113000000
O    -1.798000000    -3.302000000     4.876000000
H    -2.302000000    -4.074000000     5.132000000
H    -1.425000000    -3.530000000     4.025000000
O    -1.937000000    -4.545000000     2.301000000
H    -1.151000000    -4.526000000     1.754000000
H    -1.968000000    -5.438000000     2.645000000
O    -2.852000000     4.733000000    -3.429000000
H    -3.397000000     4.544000000    -2.665000000
H    -2.147000000     5.285000000    -3.091000000
O    -5.236000000     1.518000000    -0.832000000
H    -4.786000000     1.897000000    -0.077000000
H    -5.089000000     0.576000000    -0.750000000
O     4.175000000    -4.658000000     1.323000000
H     4.159000000    -4.171000000     0.498000000
H     4.353000000    -3.994000000     1.989000000
O     5.628000000     1.195000000    -4.275000000
H     6.192000000     1.527000000    -4.973000000
H     6.036000000     1.508000000    -3.468000000
O    -6.952000000    -0.992000000    -2.220000000
H    -7.556000000    -1.323000000    -1.555000000
H    -6.098000000    -1.338000000    -1.960000000
O    -1.098000000    -0.034000000    -6.020000000
H    -0.282000000    -0.514000000    -6.159000000
H    -0.984000000     0.393000000    -5.171000000
O    -3.511000000     1.259000000    -3.678000000
H    -3.099000000     1.826000000    -4.330000000
H    -4.413000000     1.574000000    -3.622000000
O    -7.179000000    -3.374000000     0.888000000
H    -6.457000000    -3.908000000     1.219000000
H    -7.940000000    -3.661000000     1.392000000
O     5.674000000     3.074000000     2.908000000
H     5.571000000     2.171000000     3.208000000
H     6.286000000     3.014000000     2.174000000
O     0.440000000    -4.623000000     1.062000000
H    -0.012000000    -5.049000000     0.333000000
H     0.742000000    -3.789000000     0.701000000
O    -6.202000000    -0.463000000     4.028000000
H    -6.867000000    -1.064000000     4.365000000
H    -5.390000000    -0.742000000     4.450000000
O    -5.428000000    -1.179000000     1.168000000
H    -6.115000000    -1.817000000     1.362000000
H    -5.380000000    -0.633000000     1.953000000
O     3.666000000    -0.647000000    -2.189000000
H     3.892000000     0.185000000    -1.774000000
H     3.953000000    -0.549000000    -3.097000000
O    -4.260000000    -1.882000000     5.297000000
H    -4.495000000    -1.684000000     6.204000000
H    -3.317000000    -2.042000000     5.324000000
O     6.718000000    -0.908000000    -0.723000000
H     6.148000000    -1.564000000    -1.125000000
H     6.190000000    -0.533000000    -0.018000000
O    -0.261000000     2.687000000     1.317000000
H    -0.055000000     1.963000000     0.726000000
H    -0.895000000     2.320000000     1.933000000
O    -1.857000000     3.090000000    -5.091000000
H    -2.174000000     3.659000000    -4.390000000
H    -0.950000000     2.899000000    -4.853000000
O    -0.643000000     0.380000000     6.139000000
H    -1.065000000     0.594000000     5.307000000
H    -1.326000000    -0.055000000     6.649000000
O    -4.715000000    -2.367000000    -1.277000000
H    -4.692000000    -3.322000000    -1.219000000
H    -4.465000000    -2.068000000    -0.402000000
O     2.796000000     3.002000000    -5.962000000
H     2.987000000     2.106000000    -6.239000000
H     3.538000000     3.246000000    -5.410000000
O     2.008000000    -3.599000000    -3.364000000
H     1.521000000    -3.408000000    -4.165000000
H     1.477000000    -3.218000000    -2.664000000
O     1.221000000     4.678000000    -1.154000000
H     1.459000000     3.797000000    -1.445000000
H     1.439000000     5.242000000    -1.896000000
O     2.054000000    -6.032000000     2.919000000
H     2.567000000    -5.635000000     3.623000000
H     1.933000000    -5.327000000     2.283000000
O     2.279000000     5.965000000    -3.439000000
H     2.153000000     6.814000000    -3.016000000
H     3.222000000     5.809000000    -3.385000000
O     4.609000000    -3.163000000    -1.355000000
H     4.042000000    -2.497000000    -1.743000000
H     5.244000000    -3.368000000    -2.042000000
