161
-3013.86626
C    -0.698000000    -0.272000000    -1.268000000
H    -1.270000000    -0.360000000    -2.189000000
C    -0.520000000     0.958000000    -0.788000000
H    -0.741000000     1.832000000    -1.395000000
C     0.213000000     1.160000000     0.436000000
C     0.839000000     2.537000000     0.753000000
H     0.855000000     3.225000000    -0.095000000
H     0.322000000     2.926000000     1.632000000
H     1.863000000     2.211000000     0.951000000
C     0.639000000     0.031000000     1.162000000
H     1.180000000     0.149000000     2.097000000
C     0.209000000    -1.234000000     0.706000000
H     0.374000000    -2.045000000     1.410000000
C    -0.463000000    -1.406000000    -0.493000000
C    -0.895000000    -2.846000000    -0.860000000
O    -0.647000000    -3.780000000    -0.089000000
O    -1.268000000    -3.092000000    -1.966000000
O     3.826000000    -1.283000000     4.477000000
H     3.476000000    -0.435000000     4.751000000
H     4.151000000    -1.680000000     5.285000000
O    -1.736000000     5.102000000    -0.434000000
H    -2.068000000     4.778000000     0.403000000
H    -0.784000000     5.037000000    -0.356000000
O     3.806000000     2.024000000     2.842000000
H     3.323000000     1.480000000     2.219000000
H     3.297000000     1.971000000     3.651000000
O     2.427000000     1.191000000     5.094000000
H     1.618000000     0.773000000     5.390000000
H     2.288000000     2.124000000     5.260000000
O     3.649000000    -2.774000000     2.039000000
H     3.048000000    -3.504000000     1.891000000
H     3.370000000    -2.399000000     2.874000000
O    -0.395000000    -3.462000000     5.067000000
H     0.197000000    -4.211000000     5.128000000
H    -0.750000000    -3.509000000     4.179000000
O    -2.093000000     0.836000000     4.676000000
H    -2.665000000     0.852000000     3.908000000
H    -2.680000000     0.993000000     5.415000000
O    -0.031000000     1.456000000    -7.050000000
H    -0.092000000     0.827000000    -6.331000000
H     0.423000000     0.982000000    -7.746000000
O    -4.747000000     3.795000000     0.073000000
H    -4.857000000     4.539000000     0.665000000
H    -4.233000000     3.163000000     0.574000000
O     2.267000000    -2.290000000     6.945000000
H     2.073000000    -1.544000000     6.377000000
H     3.197000000    -2.198000000     7.152000000
O     2.950000000     1.539000000    -1.677000000
H     2.471000000     1.404000000    -0.860000000
H     3.160000000     2.473000000    -1.681000000
O    -2.295000000     3.616000000     1.870000000
H    -1.946000000     2.742000000     2.039000000
H    -2.127000000     4.102000000     2.677000000
O     2.195000000     7.192000000    -1.012000000
H     1.979000000     8.092000000    -1.256000000
H     2.743000000     7.280000000    -0.232000000
O    -1.054000000    -6.348000000     0.195000000
H    -0.433000000    -6.862000000     0.712000000
H    -0.660000000    -5.478000000     0.144000000
O    -2.208000000    -0.534000000    -7.257000000
H    -2.532000000    -1.388000000    -7.543000000
H    -1.459000000    -0.737000000    -6.697000000
O     1.644000000    -4.553000000     1.404000000
H     1.561000000    -5.461000000     1.695000000
H     0.742000000    -4.255000000     1.287000000
O    -1.666000000    -3.819000000     2.519000000
H    -2.293000000    -4.539000000     2.444000000
H    -1.288000000    -3.739000000     1.643000000
O     5.114000000    -0.138000000    -1.698000000
H     4.871000000    -0.416000000    -0.815000000
H     4.436000000     0.490000000    -1.946000000
O    -1.799000000    -3.694000000    -4.418000000
H    -1.465000000    -3.410000000    -3.567000000
H    -1.602000000    -4.630000000    -4.452000000
O    -2.733000000     0.528000000     1.726000000
H    -2.006000000     0.238000000     1.174000000
H    -3.434000000     0.736000000     1.108000000
O     6.278000000     0.789000000     2.151000000
H     5.692000000     1.261000000     2.742000000
H     6.785000000     0.215000000     2.724000000
O    -2.573000000     3.614000000    -3.967000000
H    -2.429000000     3.463000000    -3.033000000
H    -3.396000000     4.102000000    -4.007000000
O    -3.395000000    -4.769000000    -0.844000000
H    -3.129000000    -5.687000000    -0.799000000
H    -2.703000000    -4.343000000    -1.349000000
O     1.970000000    -2.479000000    -2.786000000
H     1.529000000    -3.183000000    -3.261000000
H     1.659000000    -2.567000000    -1.885000000
O    -0.257000000    -1.631000000    -5.782000000
H    -0.639000000    -2.339000000    -5.263000000
H     0.179000000    -1.071000000    -5.140000000
O     3.048000000     3.176000000    -4.752000000
H     2.320000000     3.798000000    -4.773000000
H     2.642000000     2.340000000    -4.525000000
O     1.638000000     0.199000000    -4.446000000
H     2.291000000    -0.381000000    -4.836000000
H     1.904000000     0.278000000    -3.530000000
O     3.191000000     4.440000000    -1.298000000
H     2.655000000     5.224000000    -1.175000000
H     3.717000000     4.383000000    -0.500000000
O     1.531000000    -5.593000000     4.802000000
H     2.228000000    -6.114000000     5.203000000
H     1.883000000    -5.339000000     3.949000000
O    -4.097000000    -1.296000000    -3.748000000
H    -4.331000000    -1.651000000    -2.891000000
H    -3.486000000    -1.936000000    -4.114000000
O     0.132000000     6.228000000     3.117000000
H     0.633000000     6.581000000     2.382000000
H     0.397000000     6.762000000     3.866000000
O     4.240000000     4.214000000     1.370000000
H     4.287000000     3.427000000     1.913000000
H     3.824000000     4.868000000     1.932000000
O     0.997000000    -5.245000000    -2.449000000
H     0.985000000    -5.355000000    -3.399000000
H     0.143000000    -4.867000000    -2.241000000
O    -3.829000000    -5.959000000     2.050000000
H    -3.137000000    -5.906000000     1.391000000
H    -4.627000000    -5.719000000     1.579000000
O     0.070000000    -0.403000000     5.449000000
H    -0.655000000     0.115000000     5.098000000
H    -0.237000000    -1.308000000     5.400000000
O    -2.044000000     4.813000000     4.161000000
H    -1.835000000     4.494000000     5.039000000
H    -1.497000000     5.591000000     4.052000000
O    -5.542000000    -6.368000000    -1.962000000
H    -5.584000000    -7.107000000    -1.354000000
H    -5.244000000    -5.633000000    -1.426000000
O     1.344000000    -4.178000000    -5.029000000
H     1.223000000    -3.468000000    -5.659000000
H     1.572000000    -4.938000000    -5.564000000
O     3.885000000    -0.368000000     1.017000000
H     4.546000000    -0.078000000     1.645000000
H     3.673000000    -1.261000000     1.287000000
O    -1.496000000    -6.462000000    -3.853000000
H    -1.649000000    -7.362000000    -3.567000000
H    -1.187000000    -6.546000000    -4.755000000
O     3.153000000    -5.064000000    -0.886000000
H     2.483000000    -5.120000000    -1.567000000
H     2.671000000    -4.824000000    -0.094000000
O     0.736000000    -7.245000000     1.987000000
H     0.215000000    -7.327000000     2.785000000
H     1.581000000    -7.635000000     2.211000000
O    -4.382000000    -4.671000000    -4.867000000
H    -3.466000000    -4.637000000    -4.592000000
H    -4.560000000    -5.603000000    -4.993000000
O    -2.657000000    -8.457000000    -0.957000000
H    -2.095000000    -7.728000000    -0.693000000
H    -2.052000000    -9.184000000    -1.106000000
O    -3.740000000     0.782000000    -5.328000000
H    -3.464000000     0.422000000    -6.171000000
H    -3.383000000     0.175000000    -4.680000000
O     0.087000000     3.593000000    -5.433000000
H    -0.013000000     2.985000000    -6.166000000
H    -0.602000000     3.342000000    -4.818000000
O    -5.112000000    -2.717000000    -0.402000000
H    -4.409000000    -3.350000000    -0.550000000
H    -5.743000000    -3.185000000     0.146000000
O    -3.534000000    -1.729000000     3.172000000
H    -2.712000000    -2.214000000     3.105000000
H    -3.300000000    -0.828000000     2.950000000
