161
-3056.68128
C    -0.377000000    -0.968000000    -1.077000000
H    -0.715000000    -1.616000000    -1.881000000
C    -0.436000000     0.441000000    -1.153000000
H    -0.657000000     0.951000000    -2.087000000
C    -0.066000000     1.239000000    -0.030000000
C    -0.058000000     2.779000000    -0.143000000
H     0.117000000     3.333000000     0.781000000
H     0.671000000     3.068000000    -0.903000000
H    -0.998000000     3.070000000    -0.618000000
C     0.290000000     0.640000000     1.148000000
H     0.638000000     1.229000000     1.993000000
C     0.354000000    -0.763000000     1.204000000
H     0.622000000    -1.132000000     2.191000000
C     0.114000000    -1.564000000     0.092000000
C     0.235000000    -3.125000000     0.135000000
O    -0.023000000    -3.723000000     1.174000000
O     0.283000000    -3.863000000    -0.821000000
O    -4.103000000     4.246000000    -1.099000000
H    -3.536000000     4.207000000    -0.330000000
H    -4.928000000     3.858000000    -0.809000000
O     2.237000000    -0.519000000     5.695000000
H     2.192000000    -0.688000000     6.636000000
H     3.122000000    -0.787000000     5.446000000
O     1.734000000     6.379000000     0.254000000
H     1.445000000     7.039000000    -0.376000000
H     1.510000000     6.748000000     1.108000000
O     4.795000000    -3.200000000    -3.215000000
H     5.106000000    -2.514000000    -2.624000000
H     3.841000000    -3.145000000    -3.164000000
O     0.766000000     1.556000000     6.344000000
H     1.113000000     1.630000000     7.233000000
H     1.259000000     0.834000000     5.953000000
O     1.537000000    -3.073000000    -3.100000000
H     1.112000000    -3.400000000    -2.307000000
H     0.944000000    -3.321000000    -3.809000000
O     3.243000000     1.774000000     3.001000000
H     3.270000000     2.509000000     2.388000000
H     3.080000000     2.178000000     3.853000000
O     5.183000000    -3.276000000     1.607000000
H     4.775000000    -4.113000000     1.387000000
H     4.454000000    -2.657000000     1.646000000
O     3.092000000     3.371000000     5.828000000
H     2.433000000     2.864000000     6.301000000
H     2.592000000     3.871000000     5.183000000
O     3.724000000    -2.847000000     4.835000000
H     3.204000000    -3.643000000     4.721000000
H     3.774000000    -2.465000000     3.959000000
O     5.069000000     2.170000000    -0.034000000
H     5.151000000     2.326000000    -0.975000000
H     4.976000000     1.221000000     0.045000000
O    -2.780000000     3.772000000     1.259000000
H    -3.512000000     3.306000000     1.662000000
H    -2.034000000     3.181000000     1.361000000
O    -4.635000000     6.159000000    -2.978000000
H    -4.404000000     5.656000000    -2.198000000
H    -5.584000000     6.057000000    -3.056000000
O     4.911000000     3.058000000    -2.702000000
H     4.248000000     2.606000000    -3.224000000
H     5.710000000     2.996000000    -3.225000000
O    -0.457000000    -6.221000000     0.735000000
H     0.031000000    -6.830000000     1.289000000
H    -0.135000000    -5.356000000     0.990000000
O    -0.124000000     0.090000000    -5.708000000
H    -0.326000000    -0.122000000    -6.619000000
H    -0.862000000    -0.264000000    -5.211000000
O    -2.586000000    -1.139000000    -3.964000000
H    -2.992000000    -0.588000000    -3.295000000
H    -3.015000000    -1.989000000    -3.867000000
O    -3.185000000     2.170000000    -2.816000000
H    -3.369000000     2.765000000    -2.089000000
H    -3.880000000     1.513000000    -2.770000000
O     1.995000000    -3.921000000     2.757000000
H     1.332000000    -3.760000000     2.086000000
H     1.988000000    -4.871000000     2.878000000
O    -2.974000000     2.435000000    -5.746000000
H    -3.489000000     3.242000000    -5.773000000
H    -2.868000000     2.249000000    -4.813000000
O     1.601000000     4.336000000     3.659000000
H     0.785000000     4.571000000     3.218000000
H     2.205000000     4.124000000     2.947000000
O    -2.430000000    -0.978000000     2.102000000
H    -1.509000000    -0.785000000     1.931000000
H    -2.517000000    -1.914000000     1.917000000
O    -0.807000000     5.986000000    -2.923000000
H    -0.560000000     5.097000000    -3.174000000
H    -0.200000000     6.214000000    -2.219000000
O    -2.112000000    -4.462000000    -1.414000000
H    -1.227000000    -4.286000000    -1.094000000
H    -2.439000000    -5.157000000    -0.843000000
O     3.360000000    -0.110000000    -0.510000000
H     2.915000000    -0.156000000     0.336000000
H     2.726000000     0.310000000    -1.091000000
O     4.326000000    -5.757000000    -1.986000000
H     3.370000000    -5.802000000    -2.010000000
H     4.530000000    -4.856000000    -2.239000000
O     3.697000000    -1.028000000     2.869000000
H     3.291000000    -0.191000000     3.092000000
H     4.623000000    -0.910000000     3.082000000
O    -2.974000000     7.334000000     0.652000000
H    -2.695000000     6.445000000     0.432000000
H    -2.295000000     7.658000000     1.245000000
O    -2.586000000    -5.036000000    -3.957000000
H    -2.388000000    -4.792000000    -3.052000000
H    -2.560000000    -5.992000000    -3.959000000
O    -4.933000000     2.438000000     1.791000000
H    -4.501000000     1.685000000     1.387000000
H    -5.448000000     2.827000000     1.084000000
O    -2.338000000    -4.192000000     2.438000000
H    -1.483000000    -3.928000000     2.100000000
H    -2.317000000    -5.149000000     2.425000000
O    -0.704000000    -7.088000000    -3.270000000
H    -0.198000000    -6.609000000    -2.614000000
H    -0.353000000    -6.788000000    -4.109000000
O     1.453000000    -5.970000000    -1.673000000
H     1.215000000    -5.055000000    -1.525000000
H     1.083000000    -6.438000000    -0.924000000
O    -2.988000000    -6.510000000     0.262000000
H    -3.239000000    -6.994000000     1.049000000
H    -2.036000000    -6.434000000     0.322000000
O    -0.833000000     5.659000000     2.680000000
H    -1.248000000     6.339000000     3.211000000
H    -1.469000000     4.944000000     2.665000000
O     3.036000000     4.257000000     1.368000000
H     2.652000000     4.957000000     0.840000000
H     3.552000000     3.743000000     0.747000000
O    -4.367000000    -3.375000000    -0.370000000
H    -4.459000000    -3.947000000     0.392000000
H    -3.570000000    -3.680000000    -0.803000000
O    -0.285000000    -3.790000000    -5.303000000
H    -0.917000000    -4.508000000    -5.301000000
H    -0.823000000    -2.998000000    -5.317000000
O     1.250000000    -6.252000000     4.376000000
H     0.333000000    -6.452000000     4.560000000
H     1.634000000    -6.075000000     5.235000000
O     0.945000000     3.525000000    -3.739000000
H     1.614000000     3.774000000    -4.377000000
H     1.377000000     2.879000000    -3.179000000
O     1.391000000    -7.495000000     2.007000000
H     1.472000000    -6.988000000     2.815000000
H     2.050000000    -8.184000000     2.089000000
O    -4.782000000    -0.195000000    -2.412000000
H    -5.137000000    -0.103000000    -3.296000000
H    -5.380000000    -0.800000000    -1.974000000
O    -0.714000000     2.043000000     4.097000000
H    -1.053000000     1.148000000     4.099000000
H    -0.067000000     2.056000000     4.802000000
O     2.492000000     0.828000000    -3.181000000
H     2.789000000     0.926000000    -4.086000000
H     2.079000000    -0.035000000    -3.156000000
O    -3.947000000     0.549000000     0.274000000
H    -4.119000000     0.060000000    -0.530000000
H    -3.069000000     0.275000000     0.539000000
O    -1.403000000    -0.676000000     4.667000000
H    -2.061000000    -0.817000000     3.986000000
H    -0.806000000    -1.419000000     4.580000000
O    -0.050000000     3.011000000    -6.383000000
H    -0.095000000     2.276000000    -5.772000000
H    -0.963000000     3.209000000    -6.589000000
O     0.514000000    -2.581000000     4.755000000
H     1.132000000    -2.068000000     5.276000000
H     1.039000000    -2.931000000     4.035000000
