161
-3026.14331
C    -1.248000000    -0.414000000    -0.757000000
H    -2.223000000    -0.677000000    -1.159000000
C    -1.093000000     0.729000000     0.086000000
H    -2.011000000     1.220000000     0.397000000
C     0.066000000     0.987000000     0.762000000
C     0.188000000     2.170000000     1.709000000
H    -0.751000000     2.724000000     1.640000000
H     0.507000000     1.728000000     2.655000000
H     0.949000000     2.877000000     1.373000000
C     1.172000000     0.175000000     0.571000000
H     2.090000000     0.366000000     1.119000000
C     1.127000000    -0.845000000    -0.369000000
H     2.028000000    -1.396000000    -0.628000000
C    -0.100000000    -1.187000000    -1.032000000
C    -0.188000000    -2.492000000    -1.880000000
O     0.717000000    -3.315000000    -1.996000000
O    -1.234000000    -2.647000000    -2.487000000
O     5.576000000     5.139000000     2.221000000
H     4.673000000     5.455000000     2.258000000
H     6.105000000     5.895000000     2.479000000
O     2.318000000     5.275000000     4.631000000
H     2.804000000     4.775000000     5.287000000
H     1.708000000     5.808000000     5.141000000
O     3.557000000    -1.882000000    -4.131000000
H     3.243000000    -2.394000000    -3.385000000
H     3.878000000    -2.536000000    -4.752000000
O     2.463000000    -0.904000000     5.079000000
H     2.215000000    -0.852000000     6.002000000
H     1.667000000    -1.197000000     4.634000000
O    -0.362000000    -1.252000000    -5.165000000
H    -0.660000000    -2.144000000    -4.988000000
H    -1.121000000    -0.703000000    -4.968000000
O     1.362000000     5.737000000    -2.545000000
H     1.347000000     4.958000000    -1.989000000
H     2.028000000     5.547000000    -3.206000000
O     3.300000000     3.480000000     2.106000000
H     4.193000000     3.395000000     2.442000000
H     2.782000000     3.745000000     2.866000000
O     5.658000000    -1.045000000    -2.666000000
H     6.348000000    -1.708000000    -2.683000000
H     5.097000000    -1.264000000    -3.410000000
O     4.671000000    -0.750000000     3.523000000
H     4.883000000     0.173000000     3.662000000
H     3.842000000    -0.877000000     3.985000000
O    -5.984000000    -0.685000000     2.559000000
H    -5.873000000    -0.752000000     1.610000000
H    -6.846000000    -0.286000000     2.672000000
O    -1.172000000     2.890000000     5.031000000
H    -0.417000000     2.524000000     5.490000000
H    -1.277000000     2.334000000     4.259000000
O    -1.703000000     7.058000000    -0.573000000
H    -1.980000000     6.238000000    -0.164000000
H    -1.003000000     7.383000000    -0.007000000
O     2.535000000    -5.895000000    -4.561000000
H     3.431000000    -5.617000000    -4.754000000
H     2.482000000    -5.887000000    -3.606000000
O    -1.749000000     5.638000000     4.543000000
H    -2.582000000     5.992000000     4.232000000
H    -1.772000000     4.715000000     4.293000000
O    -5.693000000     0.655000000    -3.439000000
H    -5.490000000     1.205000000    -4.195000000
H    -6.431000000     0.117000000    -3.725000000
O     3.600000000    -4.659000000     0.929000000
H     4.028000000    -5.475000000     1.187000000
H     2.756000000    -4.934000000     0.571000000
O     6.306000000     2.112000000     1.079000000
H     6.189000000     1.250000000     0.680000000
H     5.465000000     2.550000000     0.953000000
O     1.307000000     1.704000000     6.087000000
H     1.169000000     1.679000000     7.034000000
H     2.091000000     2.243000000     5.974000000
O     0.092000000    -4.027000000    -4.951000000
H     0.836000000    -4.609000000    -5.103000000
H     0.192000000    -3.743000000    -4.042000000
O    -4.523000000    -2.761000000     0.107000000
H    -4.100000000    -2.672000000    -0.747000000
H    -5.101000000    -2.000000000     0.168000000
O    -3.464000000     3.994000000    -2.909000000
H    -2.915000000     3.226000000    -3.071000000
H    -3.884000000     4.169000000    -3.751000000
O    -2.939000000    -3.438000000    -4.229000000
H    -2.243000000    -3.482000000    -3.573000000
H    -3.274000000    -4.333000000    -4.283000000
O     3.353000000    -3.692000000    -1.636000000
H     3.466000000    -3.693000000    -0.686000000
H     2.416000000    -3.548000000    -1.766000000
O     2.154000000    -1.343000000    -6.861000000
H     1.625000000    -1.718000000    -6.157000000
H     2.998000000    -1.153000000    -6.451000000
O     0.393000000    -7.506000000    -3.365000000
H     0.142000000    -6.706000000    -2.904000000
H    -0.428000000    -7.984000000    -3.480000000
O     1.589000000     2.699000000    -1.522000000
H     1.121000000     2.067000000    -0.977000000
H     1.560000000     2.325000000    -2.403000000
O     3.659000000     4.304000000    -0.466000000
H     3.491000000     3.989000000     0.422000000
H     3.064000000     3.796000000    -1.018000000
O    -4.057000000    -2.276000000    -6.351000000
H    -3.876000000    -3.041000000    -6.897000000
H    -3.675000000    -2.494000000    -5.501000000
O    -4.514000000     1.515000000     3.561000000
H    -5.038000000     1.047000000     2.911000000
H    -4.972000000     1.368000000     4.389000000
O     0.894000000    -5.284000000    -0.014000000
H     0.152000000    -5.686000000     0.438000000
H     0.611000000    -5.220000000    -0.927000000
O    -2.072000000     0.333000000     4.121000000
H    -2.866000000     0.768000000     3.809000000
H    -2.343000000    -0.113000000     4.923000000
O    -1.289000000    -5.621000000    -2.081000000
H    -1.443000000    -4.687000000    -1.939000000
H    -1.908000000    -6.058000000    -1.495000000
O     5.319000000    -3.533000000     2.780000000
H     4.725000000    -4.013000000     2.203000000
H     5.069000000    -2.616000000     2.673000000
O    -4.641000000     4.219000000     1.846000000
H    -4.502000000     3.476000000     2.434000000
H    -3.861000000     4.235000000     1.291000000
O    -5.919000000    -0.308000000    -0.139000000
H    -5.465000000    -0.535000000    -0.950000000
H    -6.833000000    -0.195000000    -0.400000000
O    -4.245000000    -1.699000000    -2.611000000
H    -3.449000000    -1.992000000    -3.055000000
H    -4.436000000    -0.846000000    -3.001000000
O    -2.859000000     0.229000000    -5.657000000
H    -2.373000000     0.420000000    -6.459000000
H    -3.521000000    -0.408000000    -5.924000000
O    -6.354000000    -3.643000000    -2.086000000
H    -6.190000000    -4.345000000    -2.716000000
H    -5.601000000    -3.059000000    -2.177000000
O    -2.069000000     1.672000000    -3.393000000
H    -2.577000000     1.167000000    -4.028000000
H    -1.157000000     1.502000000    -3.626000000
O     0.795000000    -4.213000000     2.905000000
H     1.213000000    -4.453000000     2.078000000
H     0.185000000    -3.514000000     2.671000000
O     0.141000000    -1.367000000     3.587000000
H    -0.135000000    -0.461000000     3.725000000
H    -0.420000000    -1.683000000     2.878000000
O     5.270000000    -5.623000000    -2.433000000
H     5.062000000    -6.232000000    -1.724000000
H     4.720000000    -4.859000000    -2.260000000
O     0.717000000     7.699000000     0.417000000
H     1.443000000     7.104000000     0.230000000
H     0.923000000     8.067000000     1.276000000
O     1.707000000     0.819000000    -3.706000000
H     1.447000000    -0.095000000    -3.817000000
H     2.604000000     0.855000000    -4.038000000
O    -5.768000000     3.248000000    -1.088000000
H    -5.505000000     3.585000000    -1.945000000
H    -4.963000000     2.894000000    -0.712000000
O    -1.144000000    -2.984000000     1.390000000
H    -0.825000000    -2.616000000     0.566000000
H    -1.279000000    -3.912000000     1.201000000
O    -2.681000000     4.330000000    -0.161000000
H    -1.991000000     3.708000000    -0.394000000
H    -3.146000000     4.490000000    -0.982000000
O     5.948000000    -0.109000000    -0.197000000
H     5.257000000    -0.295000000    -0.833000000
H     6.370000000    -0.955000000    -0.049000000
