161
-3044.18177
C    -0.969000000    -0.652000000    -0.943000000
H    -1.643000000    -1.266000000    -1.535000000
C     0.419000000    -0.878000000    -0.958000000
H     0.886000000    -1.617000000    -1.603000000
C     1.248000000    -0.159000000    -0.094000000
C     2.718000000    -0.540000000     0.074000000
H     3.280000000     0.341000000     0.393000000
H     2.822000000    -1.307000000     0.845000000
H     3.058000000    -0.959000000    -0.875000000
C     0.673000000     0.786000000     0.791000000
H     1.342000000     1.290000000     1.484000000
C    -0.701000000     1.004000000     0.783000000
H    -1.029000000     1.805000000     1.441000000
C    -1.577000000     0.269000000    -0.075000000
C    -3.118000000     0.556000000     0.026000000
O    -3.451000000     1.170000000     1.019000000
O    -3.951000000     0.153000000    -0.779000000
O    -3.086000000     0.994000000     3.655000000
H    -3.253000000     1.075000000     2.716000000
H    -2.761000000     0.100000000     3.764000000
O     3.913000000     2.590000000    -1.505000000
H     3.792000000     3.524000000    -1.679000000
H     4.214000000     2.228000000    -2.339000000
O    -8.942000000     1.161000000    -2.681000000
H    -8.904000000     0.495000000    -3.367000000
H    -8.161000000     1.004000000    -2.150000000
O    -5.749000000     2.278000000     0.625000000
H    -6.224000000     1.711000000     1.232000000
H    -4.868000000     1.906000000     0.590000000
O    -3.053000000     4.919000000     3.156000000
H    -4.002000000     4.828000000     3.236000000
H    -2.849000000     4.556000000     2.295000000
O     0.760000000     6.281000000    -1.097000000
H     0.901000000     5.583000000    -0.457000000
H    -0.177000000     6.246000000    -1.287000000
O     2.093000000     0.120000000    -5.311000000
H     1.912000000     0.435000000    -4.426000000
H     1.723000000    -0.762000000    -5.332000000
O     7.035000000     3.649000000     2.608000000
H     6.334000000     3.199000000     2.137000000
H     7.012000000     3.273000000     3.488000000
O    -4.435000000    -4.395000000     0.867000000
H    -3.527000000    -4.212000000     1.109000000
H    -4.917000000    -3.612000000     1.134000000
O     7.451000000    -1.961000000     1.092000000
H     6.910000000    -2.356000000     1.776000000
H     8.301000000    -1.822000000     1.508000000
O     5.202000000    -2.359000000     2.703000000
H     4.950000000    -3.234000000     3.000000000
H     4.978000000    -1.784000000     3.435000000
O     4.368000000    -4.953000000     3.022000000
H     3.432000000    -4.971000000     3.224000000
H     4.562000000    -5.834000000     2.704000000
O     4.896000000     1.427000000    -4.126000000
H     5.382000000     2.209000000    -4.388000000
H     4.497000000     1.111000000    -4.937000000
O     0.263000000     4.448000000     0.998000000
H     0.436000000     3.941000000     1.791000000
H    -0.637000000     4.758000000     1.104000000
O    -2.730000000    -1.766000000     3.713000000
H    -2.271000000    -2.396000000     4.268000000
H    -3.656000000    -1.901000000     3.913000000
O     5.105000000    -3.073000000    -0.154000000
H     5.131000000    -2.903000000     0.788000000
H     4.740000000    -2.273000000    -0.532000000
O    -4.160000000    -0.738000000    -3.486000000
H    -4.550000000    -1.548000000    -3.156000000
H    -4.151000000    -0.151000000    -2.729000000
O     5.441000000     2.478000000     0.941000000
H     4.734000000     2.696000000     0.334000000
H     5.841000000     1.691000000     0.570000000
O    -1.473000000     2.714000000    -4.004000000
H    -1.753000000     2.276000000    -4.808000000
H    -0.548000000     2.485000000    -3.916000000
O    -2.509000000    -4.055000000    -1.715000000
H    -2.339000000    -3.841000000    -0.797000000
H    -2.618000000    -5.006000000    -1.723000000
O    -0.226000000    -2.058000000     2.848000000
H    -1.179000000    -2.000000000     2.923000000
H    -0.063000000    -2.105000000     1.906000000
O    -2.901000000    -1.400000000    -5.723000000
H    -3.597000000    -1.028000000    -6.264000000
H    -3.224000000    -1.317000000    -4.825000000
O    -1.773000000     0.440000000     6.421000000
H    -1.284000000     0.559000000     5.607000000
H    -1.930000000    -0.502000000     6.471000000
O    -4.843000000    -1.453000000     1.560000000
H    -5.123000000    -0.775000000     2.174000000
H    -4.216000000    -1.013000000     0.986000000
O     1.270000000     3.176000000    -1.136000000
H     2.104000000     2.845000000    -0.801000000
H     0.827000000     3.532000000    -0.366000000
O    -3.114000000     4.091000000    -2.290000000
H    -2.699000000     3.739000000    -3.077000000
H    -4.008000000     3.749000000    -2.317000000
O    -1.641000000    -3.473000000    -4.430000000
H    -2.154000000    -2.916000000    -5.016000000
H    -2.294000000    -3.906000000    -3.880000000
O     0.894000000     1.217000000    -3.089000000
H     1.067000000     2.067000000    -2.684000000
H     0.538000000     0.681000000    -2.380000000
O    -5.054000000    -2.715000000    -2.048000000
H    -5.426000000    -2.121000000    -1.396000000
H    -4.422000000    -3.241000000    -1.559000000
O     2.017000000    -4.153000000     4.460000000
H     1.405000000    -3.641000000     3.931000000
H     1.576000000    -4.257000000     5.303000000
O    -4.913000000     0.960000000     5.555000000
H    -4.178000000     0.819000000     4.958000000
H    -5.552000000     1.450000000     5.036000000
O     5.282000000    -0.676000000    -2.234000000
H     5.284000000    -0.205000000    -1.401000000
H     4.915000000    -0.054000000    -2.861000000
O    -6.594000000     0.531000000    -1.546000000
H    -5.671000000     0.319000000    -1.410000000
H    -6.716000000     1.368000000    -1.098000000
O     6.762000000    -2.655000000    -3.399000000
H     6.015000000    -2.211000000    -2.997000000
H     6.542000000    -2.700000000    -4.330000000
O    -7.747000000    -2.231000000     1.204000000
H    -7.212000000    -1.710000000     1.803000000
H    -8.649000000    -2.017000000     1.439000000
O    -4.825000000     1.446000000    -4.784000000
H    -5.398000000     1.040000000    -5.433000000
H    -4.296000000     0.724000000    -4.446000000
O     2.719000000     5.250000000     3.875000000
H     2.400000000     5.428000000     4.760000000
H     2.674000000     4.297000000     3.792000000
O     3.089000000     2.532000000     3.468000000
H     3.658000000     2.231000000     2.760000000
H     3.446000000     2.120000000     4.255000000
O    -7.361000000     3.568000000    -1.168000000
H    -6.632000000     3.620000000    -0.551000000
H    -6.957000000     3.687000000    -2.028000000
O     6.871000000     0.386000000    -0.187000000
H     7.102000000    -0.479000000     0.152000000
H     7.484000000     0.532000000    -0.907000000
O     0.276000000     3.039000000     3.440000000
H     0.974000000     3.203000000     4.074000000
H    -0.498000000     2.866000000     3.975000000
O    -1.850000000     3.182000000     5.040000000
H    -2.336000000     3.909000000     4.651000000
H    -2.311000000     2.399000000     4.739000000
O     0.857000000    -2.360000000    -5.310000000
H     0.208000000    -2.022000000    -5.928000000
H     0.363000000    -2.959000000    -4.750000000
O     0.004000000     0.516000000     4.237000000
H     0.230000000    -0.405000000     4.104000000
H     0.400000000     0.970000000     3.492000000
O     7.869000000     0.028000000     3.275000000
H     8.704000000     0.319000000     2.907000000
H     7.284000000    -0.035000000     2.520000000
O    -1.760000000    -3.947000000     1.245000000
H    -1.368000000    -3.618000000     2.053000000
H    -1.215000000    -4.696000000     1.002000000
O     4.661000000    -5.941000000    -0.649000000
H     4.914000000    -5.020000000    -0.589000000
H     5.276000000    -6.319000000    -1.278000000
O    -2.939000000     3.679000000     0.784000000
H    -2.669000000     3.727000000    -0.133000000
H    -3.229000000     2.774000000     0.901000000
