161
-3031.77179
C     0.744000000    -0.194000000    -1.201000000
H     1.138000000    -0.248000000    -2.212000000
C    -0.516000000    -0.729000000    -0.948000000
H    -1.050000000    -1.216000000    -1.760000000
C    -1.038000000    -0.641000000     0.280000000
C    -2.385000000    -1.216000000     0.585000000
H    -2.734000000    -0.911000000     1.574000000
H    -3.033000000    -0.656000000    -0.092000000
H    -2.476000000    -2.296000000     0.455000000
C    -0.387000000     0.158000000     1.224000000
H    -0.834000000     0.294000000     2.206000000
C     0.788000000     0.856000000     0.918000000
H     1.320000000     1.459000000     1.650000000
C     1.375000000     0.640000000    -0.304000000
C     2.656000000     1.403000000    -0.694000000
O     3.337000000     1.913000000     0.126000000
O     3.100000000     1.377000000    -1.809000000
O     2.113000000     4.242000000     0.813000000
H     2.574000000     3.409000000     0.720000000
H     1.824000000     4.256000000     1.726000000
O    -0.812000000     5.117000000     2.337000000
H    -0.730000000     5.329000000     3.267000000
H    -0.347000000     4.286000000     2.239000000
O     6.733000000     2.283000000    -4.164000000
H     6.981000000     1.945000000    -5.025000000
H     5.805000000     2.502000000    -4.251000000
O    -3.681000000    -3.466000000     4.083000000
H    -4.504000000    -3.788000000     3.715000000
H    -3.932000000    -3.056000000     4.910000000
O    -2.168000000    -7.052000000    -1.138000000
H    -1.553000000    -6.882000000    -1.852000000
H    -1.717000000    -6.740000000    -0.354000000
O     4.984000000    -0.410000000    -2.949000000
H     4.465000000     0.181000000    -2.403000000
H     5.843000000    -0.434000000    -2.526000000
O    -7.089000000     2.500000000     0.541000000
H    -6.320000000     2.350000000    -0.009000000
H    -7.832000000     2.280000000    -0.021000000
O    -0.884000000     0.963000000     5.625000000
H    -1.029000000     0.048000000     5.386000000
H    -1.194000000     1.460000000     4.868000000
O     5.339000000     3.705000000    -0.384000000
H     4.996000000     4.528000000    -0.035000000
H     4.615000000     3.085000000    -0.291000000
O     7.780000000     3.655000000    -1.802000000
H     6.906000000     3.555000000    -1.424000000
H     7.638000000     3.609000000    -2.748000000
O    -2.655000000    -1.685000000    -6.000000000
H    -2.238000000    -1.201000000    -5.288000000
H    -2.240000000    -2.547000000    -5.980000000
O     2.071000000    -3.085000000    -6.882000000
H     2.912000000    -3.539000000    -6.839000000
H     1.985000000    -2.658000000    -6.029000000
O     4.700000000     5.994000000     1.108000000
H     3.823000000     6.251000000     0.824000000
H     4.890000000     6.570000000     1.849000000
O     3.349000000    -0.616000000    -5.077000000
H     3.912000000    -0.463000000    -4.318000000
H     3.944000000    -0.591000000    -5.826000000
O    -1.580000000    -0.058000000    -4.261000000
H    -1.638000000     0.843000000    -4.577000000
H    -1.151000000     0.014000000    -3.408000000
O     7.573000000     0.429000000    -2.031000000
H     8.527000000     0.507000000    -2.043000000
H     7.281000000     0.952000000    -2.778000000
O    -5.918000000    -4.028000000     0.127000000
H    -5.717000000    -4.754000000    -0.464000000
H    -6.162000000    -4.451000000     0.951000000
O    -1.445000000     4.779000000    -1.376000000
H    -0.505000000     4.606000000    -1.318000000
H    -1.503000000     5.681000000    -1.690000000
O     5.133000000    -2.546000000     1.421000000
H     4.266000000    -2.928000000     1.283000000
H     4.957000000    -1.679000000     1.786000000
O     2.696000000     6.878000000    -2.888000000
H     2.269000000     6.148000000    -2.440000000
H     3.576000000     6.557000000    -3.084000000
O     1.806000000    -1.789000000     4.781000000
H     2.500000000    -1.240000000     4.416000000
H     2.072000000    -1.940000000     5.688000000
O     3.432000000     4.731000000    -5.376000000
H     2.579000000     4.364000000    -5.609000000
H     3.862000000     4.039000000    -4.875000000
O    -2.077000000     1.891000000    -1.341000000
H    -1.562000000     2.697000000    -1.360000000
H    -1.445000000     1.208000000    -1.117000000
O     0.953000000    -4.667000000    -0.109000000
H     1.875000000    -4.845000000    -0.293000000
H     0.505000000    -4.843000000    -0.937000000
O    -1.832000000     2.383000000     3.505000000
H    -2.586000000     2.424000000     2.917000000
H    -2.053000000     2.980000000     4.220000000
O    -7.232000000    -2.028000000    -1.372000000
H    -6.441000000    -1.685000000    -1.787000000
H    -6.911000000    -2.680000000    -0.749000000
O     3.797000000     1.751000000     3.787000000
H     4.609000000     1.711000000     4.292000000
H     3.963000000     1.197000000     3.024000000
O     0.984000000    -1.876000000    -4.579000000
H     0.402000000    -1.238000000    -4.992000000
H     1.857000000    -1.492000000    -4.664000000
O     4.421000000     3.258000000    -3.081000000
H     5.035000000     3.433000000    -2.368000000
H     3.778000000     2.659000000    -2.702000000
O     1.504000000     3.742000000     3.747000000
H     0.989000000     3.263000000     4.396000000
H     2.279000000     3.198000000     3.608000000
O    -0.612000000     2.927000000    -4.380000000
H     0.201000000     2.452000000    -4.208000000
H    -0.404000000     3.839000000    -4.176000000
O     5.294000000     0.450000000     1.780000000
H     4.974000000     1.092000000     1.147000000
H     6.214000000     0.324000000     1.548000000
O    -6.443000000    -0.967000000     1.312000000
H    -6.235000000    -0.121000000     0.915000000
H    -5.721000000    -1.538000000     1.050000000
O     1.882000000     2.078000000    -3.994000000
H     2.140000000     1.827000000    -3.107000000
H     2.603000000     1.775000000    -4.547000000
O    -5.488000000     0.515000000    -2.994000000
H    -5.743000000     0.016000000    -3.770000000
H    -4.884000000     1.180000000    -3.324000000
O     3.764000000    -3.318000000    -2.967000000
H     2.971000000    -2.965000000    -2.563000000
H     4.272000000    -2.545000000    -3.212000000
O    -4.788000000     1.905000000     5.034000000
H    -4.097000000     2.565000000     4.985000000
H    -4.889000000     1.596000000     4.134000000
O     1.690000000     1.057000000     7.130000000
H     2.332000000     1.642000000     6.726000000
H     1.045000000     0.898000000     6.442000000
O    -3.948000000     3.275000000    -3.236000000
H    -3.352000000     2.781000000    -2.673000000
H    -4.179000000     4.048000000    -2.720000000
O     0.315000000    -4.023000000    -2.846000000
H    -0.632000000    -4.033000000    -2.706000000
H     0.463000000    -3.272000000    -3.421000000
O    -0.883000000    -1.536000000     4.641000000
H    -1.319000000    -2.389000000     4.642000000
H    -0.037000000    -1.700000000     4.225000000
O    -4.311000000     1.742000000     2.219000000
H    -4.427000000     1.468000000     1.309000000
H    -4.407000000     2.694000000     2.196000000
O    -4.569000000     1.341000000    -0.502000000
H    -3.632000000     1.357000000    -0.700000000
H    -4.991000000     1.206000000    -1.350000000
O     5.329000000     4.364000000     4.044000000
H     4.478000000     4.120000000     3.681000000
H     5.938000000     4.266000000     3.312000000
O     1.018000000     5.458000000    -1.242000000
H     1.481000000     5.074000000    -0.497000000
H     1.106000000     6.403000000    -1.116000000
O    -5.307000000    -1.065000000    -5.284000000
H    -5.478000000    -1.982000000    -5.067000000
H    -4.356000000    -1.013000000    -5.373000000
O    -2.200000000    -4.202000000    -2.281000000
H    -2.781000000    -3.469000000    -2.486000000
H    -2.786000000    -4.954000000    -2.192000000
O     2.662000000    -3.154000000     2.176000000
H     2.207000000    -2.460000000     2.653000000
H     1.966000000    -3.752000000     1.902000000
