161
-3052.86727
C     0.663000000     0.091000000     1.299000000
H     1.194000000    -0.045000000     2.238000000
C     1.128000000    -0.618000000     0.240000000
H     2.060000000    -1.168000000     0.345000000
C     0.364000000    -0.700000000    -0.926000000
C     0.831000000    -1.601000000    -2.018000000
H     0.392000000    -1.313000000    -2.975000000
H     1.909000000    -1.506000000    -2.165000000
H     0.584000000    -2.656000000    -1.881000000
C    -0.800000000     0.042000000    -1.016000000
H    -1.369000000     0.012000000    -1.942000000
C    -1.217000000     0.876000000    -0.005000000
H    -2.060000000     1.560000000    -0.057000000
C    -0.494000000     0.867000000     1.171000000
C    -0.923000000     1.804000000     2.239000000
O    -2.108000000     2.100000000     2.390000000
O    -0.158000000     2.250000000     3.055000000
O    -7.117000000     2.014000000    -0.451000000
H    -6.315000000     2.074000000     0.068000000
H    -7.426000000     2.917000000    -0.520000000
O    -3.827000000    -1.958000000     5.261000000
H    -2.994000000    -1.607000000     5.576000000
H    -3.936000000    -1.570000000     4.392000000
O     2.482000000     2.071000000     3.081000000
H     1.563000000     2.164000000     2.832000000
H     2.490000000     2.216000000     4.027000000
O    -3.826000000    -0.065000000     3.204000000
H    -3.284000000     0.681000000     2.947000000
H    -4.149000000    -0.422000000     2.377000000
O    -0.338000000     6.133000000     5.845000000
H     0.132000000     6.849000000     5.417000000
H    -0.212000000     5.383000000     5.264000000
O    -3.243000000     5.750000000     3.038000000
H    -2.309000000     5.891000000     2.885000000
H    -3.277000000     5.024000000     3.661000000
O     0.494000000     0.070000000    -7.862000000
H    -0.289000000     0.476000000    -8.235000000
H     0.173000000    -0.419000000    -7.105000000
O    -0.701000000     6.064000000     1.636000000
H     0.089000000     6.289000000     1.144000000
H    -1.409000000     6.504000000     1.166000000
O     2.690000000     2.662000000    -0.820000000
H     1.889000000     2.432000000    -1.291000000
H     2.623000000     3.606000000    -0.680000000
O    -2.649000000     3.497000000     4.563000000
H    -2.559000000     3.063000000     3.715000000
H    -2.098000000     2.985000000     5.154000000
O     0.790000000    -3.722000000     1.271000000
H     1.063000000    -4.593000000     1.559000000
H     1.594000000    -3.204000000     1.281000000
O    -1.631000000    -2.305000000     0.991000000
H    -1.572000000    -1.357000000     0.870000000
H    -0.733000000    -2.616000000     0.878000000
O     3.056000000     0.692000000    -3.747000000
H     2.327000000     1.120000000    -3.298000000
H     3.836000000     1.134000000    -3.412000000
O    -4.643000000     2.815000000     1.702000000
H    -3.750000000     2.477000000     1.640000000
H    -4.976000000     2.462000000     2.528000000
O    -4.474000000     1.859000000    -2.097000000
H    -4.450000000     1.235000000    -1.372000000
H    -3.962000000     1.442000000    -2.790000000
O    -3.416000000     0.665000000    -4.206000000
H    -3.175000000     1.104000000    -5.021000000
H    -4.037000000    -0.013000000    -4.473000000
O     3.022000000    -2.645000000     2.406000000
H     3.175000000    -1.710000000     2.541000000
H     2.998000000    -3.014000000     3.289000000
O     1.943000000    -5.810000000    -2.663000000
H     2.746000000    -6.329000000    -2.716000000
H     1.919000000    -5.321000000    -3.486000000
O    -2.479000000     4.346000000     0.294000000
H    -1.934000000     3.923000000     0.959000000
H    -3.211000000     4.718000000     0.786000000
O    -1.430000000     4.002000000    -2.008000000
H    -1.294000000     4.904000000    -2.299000000
H    -1.823000000     4.087000000    -1.139000000
O     0.531000000     0.620000000     5.101000000
H     0.579000000     0.968000000     4.211000000
H    -0.046000000     1.228000000     5.564000000
O     3.687000000    -3.960000000    -0.138000000
H     3.212000000    -4.725000000     0.185000000
H     3.982000000    -3.509000000     0.654000000
O    -3.513000000    -3.008000000    -0.733000000
H    -2.775000000    -2.681000000    -0.220000000
H    -3.239000000    -2.898000000    -1.644000000
O     4.366000000     4.163000000     2.031000000
H     4.171000000     4.789000000     1.334000000
H     3.556000000     3.665000000     2.140000000
O     1.947000000    -1.807000000     5.742000000
H     1.759000000    -0.908000000     5.471000000
H     1.603000000    -1.864000000     6.633000000
O     4.205000000     0.049000000     2.722000000
H     4.931000000     0.205000000     3.326000000
H     3.622000000     0.797000000     2.850000000
O    -5.459000000     3.121000000     4.507000000
H    -4.506000000     3.215000000     4.524000000
H    -5.762000000     3.620000000     5.266000000
O    -0.803000000    -0.743000000    -5.660000000
H    -1.153000000    -0.020000000    -5.139000000
H    -1.576000000    -1.231000000    -5.943000000
O    -2.987000000    -2.698000000    -3.447000000
H    -3.928000000    -2.528000000    -3.405000000
H    -2.777000000    -2.655000000    -4.380000000
O    -4.800000000    -0.483000000    -0.078000000
H    -5.469000000    -0.787000000     0.536000000
H    -4.586000000    -1.255000000    -0.601000000
O    -5.322000000     4.473000000    -1.013000000
H    -4.846000000     3.744000000    -1.410000000
H    -4.842000000     5.253000000    -1.291000000
O     0.615000000    -3.595000000    -6.806000000
H     0.470000000    -2.669000000    -6.609000000
H     0.661000000    -4.018000000    -5.949000000
O     2.397000000    -4.340000000    -4.721000000
H     2.524000000    -3.396000000    -4.825000000
H     3.265000000    -4.715000000    -4.865000000
O    -5.798000000     5.372000000     1.924000000
H    -5.608000000     4.518000000     1.536000000
H    -4.945000000     5.802000000     1.986000000
O    -0.803000000    -1.982000000     4.302000000
H    -0.996000000    -2.259000000     3.406000000
H     0.152000000    -2.008000000     4.360000000
O     5.019000000     1.281000000     0.450000000
H     4.226000000     1.475000000    -0.050000000
H     4.699000000     0.960000000     1.293000000
O     5.561000000    -1.362000000    -3.562000000
H     5.656000000    -1.254000000    -2.615000000
H     6.445000000    -1.238000000    -3.907000000
O    -1.164000000     2.298000000     6.798000000
H    -0.413000000     2.823000000     7.076000000
H    -1.758000000     2.314000000     7.549000000
O     0.288000000     4.703000000     3.814000000
H     0.008000000     3.829000000     3.541000000
H     0.104000000     5.260000000     3.058000000
O     3.107000000     3.477000000     5.403000000
H     3.205000000     3.857000000     6.275000000
H     3.040000000     4.232000000     4.818000000
O     4.784000000    -4.050000000    -2.614000000
H     4.325000000    -4.005000000    -1.775000000
H     4.731000000    -3.160000000    -2.964000000
O     0.847000000     2.304000000    -2.812000000
H     0.722000000     2.335000000    -3.761000000
H    -0.024000000     2.466000000    -2.451000000
O    -4.229000000     5.040000000     6.321000000
H    -3.503000000     4.757000000     5.766000000
H    -4.210000000     4.439000000     7.066000000
O    -0.805000000    -4.576000000    -3.453000000
H    -0.062000000    -4.461000000    -2.860000000
H    -1.306000000    -3.765000000    -3.369000000
O     2.182000000    -1.712000000    -5.219000000
H     2.647000000    -1.144000000    -4.605000000
H     1.891000000    -1.124000000    -5.916000000
O    -1.835000000    -0.515000000     6.518000000
H    -1.617000000     0.416000000     6.544000000
H    -1.266000000    -0.877000000     5.839000000
O    -0.037000000    -6.075000000    -0.808000000
H     0.630000000    -6.100000000    -1.493000000
H     0.035000000    -5.196000000    -0.435000000
O     6.781000000    -0.229000000    -1.168000000
H     6.104000000     0.194000000    -0.640000000
H     7.586000000     0.238000000    -0.945000000
