161
-3058.23562
C     0.207000000     0.081000000     1.436000000
H     0.395000000    -0.034000000     2.500000000
C     0.988000000    -0.639000000     0.533000000
H     1.778000000    -1.271000000     0.932000000
C     0.701000000    -0.585000000    -0.793000000
C     1.531000000    -1.424000000    -1.744000000
H     1.052000000    -1.627000000    -2.705000000
H     2.549000000    -1.035000000    -1.798000000
H     1.658000000    -2.449000000    -1.388000000
C    -0.358000000     0.250000000    -1.265000000
H    -0.673000000     0.242000000    -2.305000000
C    -1.126000000     0.964000000    -0.385000000
H    -1.908000000     1.580000000    -0.822000000
C    -0.946000000     0.752000000     0.993000000
C    -1.747000000     1.539000000     1.989000000
O    -2.532000000     2.312000000     1.642000000
O    -1.565000000     1.339000000     3.184000000
O    -6.465000000    -0.312000000     0.403000000
H    -6.607000000    -0.155000000     1.337000000
H    -6.873000000    -1.162000000     0.239000000
O     2.376000000     2.643000000     2.362000000
H     3.229000000     2.367000000     2.697000000
H     1.761000000     2.422000000     3.063000000
O     5.250000000    -2.814000000     4.035000000
H     4.497000000    -2.684000000     3.457000000
H     4.867000000    -2.918000000     4.906000000
O    -3.971000000     3.552000000    -1.208000000
H    -3.226000000     3.754000000    -1.774000000
H    -3.593000000     3.059000000    -0.480000000
O     1.325000000     3.111000000     4.890000000
H     2.158000000     3.432000000     5.236000000
H     0.791000000     3.899000000     4.782000000
O     1.724000000     2.614000000    -0.280000000
H     1.263000000     1.800000000    -0.480000000
H     1.644000000     2.709000000     0.669000000
O    -1.624000000     5.647000000    -1.676000000
H    -2.276000000     5.870000000    -2.341000000
H    -1.089000000     6.436000000    -1.590000000
O    -2.208000000    -0.076000000     6.691000000
H    -1.428000000     0.287000000     6.273000000
H    -2.163000000     0.235000000     7.595000000
O    -1.275000000    -3.406000000     1.604000000
H    -0.403000000    -3.345000000     1.213000000
H    -1.223000000    -2.862000000     2.390000000
O     0.512000000    -4.101000000    -5.302000000
H     0.719000000    -3.648000000    -6.119000000
H     1.364000000    -4.324000000    -4.929000000
O     2.372000000     1.645000000    -5.817000000
H     1.571000000     2.153000000    -5.693000000
H     2.845000000     1.737000000    -4.990000000
O     0.094000000     5.349000000     3.122000000
H    -0.551000000     5.217000000     2.428000000
H     0.940000000     5.252000000     2.685000000
O     6.716000000     1.574000000    -0.355000000
H     5.835000000     1.673000000    -0.716000000
H     6.810000000     2.306000000     0.254000000
O     4.241000000     2.237000000    -0.902000000
H     4.118000000     2.188000000    -1.850000000
H     3.401000000     2.554000000    -0.568000000
O    -2.683000000     4.129000000     7.004000000
H    -2.648000000     4.964000000     6.538000000
H    -2.888000000     3.485000000     6.326000000
O    -0.039000000     2.522000000    -5.061000000
H     0.096000000     3.128000000    -4.333000000
H    -0.919000000     2.172000000    -4.922000000
O     5.378000000    -2.179000000     0.945000000
H     5.238000000    -1.271000000     1.215000000
H     5.088000000    -2.699000000     1.695000000
O     3.061000000    -4.724000000    -3.441000000
H     3.404000000    -4.213000000    -2.708000000
H     3.276000000    -4.204000000    -4.216000000
O    -6.242000000     2.052000000    -1.466000000
H    -5.799000000     1.204000000    -1.463000000
H    -5.540000000     2.689000000    -1.327000000
O    -1.731000000     4.637000000     1.139000000
H    -2.025000000     3.729000000     1.066000000
H    -1.391000000     4.850000000     0.270000000
O    -2.612000000    -1.050000000     4.006000000
H    -2.141000000    -0.331000000     3.584000000
H    -2.649000000    -0.801000000     4.930000000
O     0.464000000     3.852000000    -2.645000000
H     0.843000000     3.219000000    -2.035000000
H    -0.236000000     4.275000000    -2.147000000
O    -5.194000000    -1.764000000     3.292000000
H    -4.973000000    -2.294000000     4.058000000
H    -4.569000000    -1.040000000     3.314000000
O    -1.409000000    -0.644000000    -5.682000000
H    -1.617000000    -1.333000000    -5.052000000
H    -1.330000000     0.149000000    -5.152000000
O    -0.057000000     0.749000000     5.221000000
H    -0.749000000     0.962000000     4.595000000
H     0.362000000     1.589000000     5.409000000
O    -4.874000000     1.132000000     2.483000000
H    -5.034000000     0.983000000     1.551000000
H    -3.961000000     1.414000000     2.527000000
O    -3.578000000    -0.055000000    -2.619000000
H    -3.437000000    -0.379000000    -1.730000000
H    -3.932000000    -0.807000000    -3.094000000
O    -0.897000000    -5.702000000    -1.587000000
H    -1.318000000    -6.440000000    -1.147000000
H    -1.569000000    -5.020000000    -1.608000000
O    -3.392000000    -1.286000000     0.073000000
H    -2.879000000    -1.635000000     0.801000000
H    -4.284000000    -1.228000000     0.414000000
O     1.389000000    -7.107000000     0.568000000
H     1.792000000    -7.117000000    -0.300000000
H     0.948000000    -7.953000000     0.638000000
O     3.695000000    -3.265000000    -5.623000000
H     4.517000000    -2.812000000    -5.812000000
H     3.152000000    -3.108000000    -6.396000000
O     4.273000000     1.045000000     3.772000000
H     5.142000000     0.646000000     3.804000000
H     3.939000000     0.966000000     4.665000000
O    -2.570000000     1.870000000    -4.272000000
H    -2.844000000     1.134000000    -3.724000000
H    -3.281000000     1.975000000    -4.904000000
O     2.433000000     0.473000000     6.207000000
H     2.495000000     1.425000000     6.288000000
H     1.540000000     0.318000000     5.898000000
O     4.995000000     2.091000000    -4.224000000
H     5.226000000     2.288000000    -5.132000000
H     5.748000000     2.393000000    -3.715000000
O     2.613000000    -2.877000000     2.991000000
H     2.221000000    -3.390000000     2.285000000
H     1.886000000    -2.369000000     3.351000000
O     5.401000000    -0.980000000    -4.409000000
H     5.415000000    -0.050000000    -4.182000000
H     4.810000000    -1.374000000    -3.768000000
O     7.372000000    -1.218000000    -0.669000000
H     6.656000000    -1.697000000    -0.251000000
H     7.226000000    -0.305000000    -0.420000000
O     0.480000000    -1.745000000     4.287000000
H     0.806000000    -2.308000000     4.989000000
H     0.187000000    -0.951000000     4.733000000
O    -3.426000000    -3.711000000    -1.607000000
H    -3.031000000    -3.009000000    -1.090000000
H    -3.948000000    -3.258000000    -2.269000000
O    -1.615000000    -2.671000000    -3.933000000
H    -2.210000000    -3.314000000    -3.547000000
H    -0.851000000    -3.182000000    -4.199000000
O     0.492000000    -7.029000000    -3.832000000
H     0.183000000    -7.168000000    -4.727000000
H     0.028000000    -6.245000000    -3.538000000
O     4.596000000    -3.644000000    -1.519000000
H     4.926000000    -2.952000000    -0.946000000
H     5.365000000    -3.939000000    -2.006000000
O    -6.823000000     1.577000000     4.541000000
H    -6.251000000     1.430000000     3.787000000
H    -6.315000000     1.266000000     5.291000000
O    -3.296000000     2.982000000     4.594000000
H    -4.063000000     2.421000000     4.476000000
H    -2.683000000     2.694000000     3.918000000
O     0.862000000    -0.312000000    -7.531000000
H    -0.040000000    -0.540000000    -7.307000000
H     1.137000000     0.286000000    -6.835000000
O    -3.983000000     5.076000000     2.674000000
H    -3.921000000     4.245000000     3.144000000
H    -3.228000000     5.075000000     2.086000000
O     1.461000000    -4.314000000     0.945000000
H     1.529000000    -3.833000000     0.120000000
H     1.441000000    -5.235000000     0.684000000
