161
-3021.30482
C    -0.642000000    -1.283000000     0.404000000
H    -1.034000000    -2.279000000     0.593000000
C     0.384000000    -1.078000000    -0.548000000
H     0.692000000    -1.889000000    -1.202000000
C     0.882000000     0.197000000    -0.843000000
C     1.897000000     0.255000000    -1.940000000
H     1.406000000    -0.004000000    -2.880000000
H     2.362000000     1.240000000    -2.008000000
H     2.664000000    -0.472000000    -1.662000000
C     0.385000000     1.320000000    -0.168000000
H     0.728000000     2.337000000    -0.343000000
C    -0.584000000     1.104000000     0.786000000
H    -1.159000000     1.983000000     1.066000000
C    -1.070000000    -0.173000000     1.120000000
C    -2.091000000    -0.370000000     2.186000000
O    -2.551000000     0.561000000     2.746000000
O    -2.270000000    -1.444000000     2.701000000
O    -7.387000000     3.333000000     2.970000000
H    -7.795000000     2.696000000     3.556000000
H    -6.552000000     2.933000000     2.725000000
O    -3.867000000    -2.486000000     6.653000000
H    -4.685000000    -2.922000000     6.891000000
H    -3.347000000    -2.497000000     7.457000000
O    -1.612000000     2.531000000     4.239000000
H    -2.287000000     3.134000000     3.929000000
H    -1.763000000     1.727000000     3.741000000
O    -5.061000000    -1.180000000     3.741000000
H    -4.526000000    -1.939000000     3.973000000
H    -4.535000000    -0.704000000     3.098000000
O    -2.845000000     4.997000000    -2.243000000
H    -2.361000000     5.753000000    -2.575000000
H    -3.626000000     4.952000000    -2.794000000
O     0.281000000     5.833000000     0.760000000
H     0.922000000     5.123000000     0.790000000
H     0.802000000     6.630000000     0.858000000
O    -4.468000000     2.906000000     5.200000000
H    -4.750000000     2.728000000     4.304000000
H    -3.841000000     3.625000000     5.115000000
O     0.444000000    -4.073000000     4.339000000
H     1.272000000    -4.488000000     4.095000000
H     0.676000000    -3.160000000     4.510000000
O     1.117000000     3.927000000    -3.093000000
H     1.053000000     4.830000000    -2.783000000
H     0.255000000     3.551000000    -2.916000000
O     2.385000000    -2.636000000     1.039000000
H     1.847000000    -1.845000000     1.019000000
H     2.678000000    -2.705000000     1.948000000
O    -3.408000000    -0.675000000    -1.594000000
H    -2.686000000    -1.033000000    -2.110000000
H    -3.619000000    -1.365000000    -0.966000000
O     3.901000000    -3.431000000    -6.024000000
H     4.679000000    -3.652000000    -5.512000000
H     3.990000000    -2.495000000    -6.202000000
O     1.917000000    -3.049000000    -3.038000000
H     2.594000000    -2.407000000    -3.252000000
H     1.885000000    -3.626000000    -3.801000000
O    -4.675000000     2.395000000     2.439000000
H    -3.962000000     1.759000000     2.388000000
H    -4.637000000     2.865000000     1.605000000
O     0.741000000    -1.035000000     3.643000000
H     0.057000000    -1.491000000     3.152000000
H     0.363000000    -0.903000000     4.513000000
O     5.240000000     0.741000000     1.808000000
H     4.861000000     0.927000000     0.949000000
H     4.501000000     0.436000000     2.335000000
O     4.771000000    -2.590000000    -1.201000000
H     4.064000000    -2.542000000    -0.557000000
H     5.453000000    -3.104000000    -0.769000000
O    -3.994000000    -3.323000000     1.887000000
H    -3.517000000    -2.493000000     1.885000000
H    -3.623000000    -3.810000000     2.623000000
O    -4.493000000     1.735000000    -2.599000000
H    -4.628000000     1.307000000    -3.444000000
H    -4.336000000     1.015000000    -1.988000000
O     2.629000000    -4.874000000    -0.724000000
H     2.656000000    -4.611000000    -1.644000000
H     2.448000000    -4.063000000    -0.248000000
O    -2.250000000     2.645000000    -4.128000000
H    -2.543000000     3.497000000    -4.450000000
H    -2.718000000     2.527000000    -3.302000000
O    -1.841000000     0.998000000    -6.383000000
H    -1.986000000     1.532000000    -5.603000000
H    -0.914000000     1.121000000    -6.589000000
O    -5.744000000    -3.212000000    -0.115000000
H    -5.169000000    -3.212000000    -0.880000000
H    -5.169000000    -3.437000000     0.617000000
O    -4.721000000     0.835000000     7.103000000
H    -4.143000000     0.120000000     6.838000000
H    -4.865000000     1.336000000     6.301000000
O     0.155000000    -1.962000000    -6.573000000
H     0.519000000    -1.078000000    -6.587000000
H     0.744000000    -2.473000000    -7.128000000
O     5.590000000     2.678000000    -0.552000000
H     6.113000000     2.028000000    -1.021000000
H     5.004000000     3.039000000    -1.217000000
O    -2.086000000    -4.121000000     3.779000000
H    -1.139000000    -4.174000000     3.910000000
H    -2.252000000    -3.194000000     3.608000000
O     4.477000000     1.277000000    -3.715000000
H     5.183000000     0.974000000    -4.286000000
H     4.926000000     1.643000000    -2.953000000
O     3.938000000     3.922000000    -2.473000000
H     4.237000000     4.296000000    -3.302000000
H     3.079000000     3.552000000    -2.674000000
O     0.611000000     3.933000000     3.452000000
H     1.318000000     3.470000000     3.902000000
H    -0.190000000     3.519000000     3.775000000
O     2.249000000     2.529000000    -5.105000000
H     1.811000000     3.008000000    -4.401000000
H     2.851000000     1.937000000    -4.654000000
O     2.651000000     4.274000000     0.556000000
H     3.225000000     3.555000000     0.292000000
H     3.119000000     5.065000000     0.287000000
O     5.144000000    -5.608000000    -0.066000000
H     4.924000000    -6.508000000    -0.306000000
H     4.381000000    -5.096000000    -0.333000000
O     6.734000000     0.902000000    -2.091000000
H     7.469000000     1.272000000    -2.580000000
H     6.988000000    -0.005000000    -1.925000000
O    -2.968000000     5.136000000     4.479000000
H    -3.266000000     5.566000000     3.678000000
H    -2.857000000     5.850000000     5.107000000
O    -0.817000000     0.934000000     6.416000000
H    -1.091000000     0.061000000     6.136000000
H    -1.151000000     1.519000000     5.736000000
O     4.041000000    -1.468000000    -3.803000000
H     4.466000000    -1.752000000    -2.994000000
H     3.860000000    -0.539000000    -3.666000000
O    -4.336000000     3.584000000    -0.204000000
H    -4.516000000     2.787000000    -0.704000000
H    -3.495000000     3.893000000    -0.542000000
O     0.670000000     6.577000000    -1.899000000
H     0.442000000     5.984000000    -1.183000000
H    -0.149000000     7.026000000    -2.107000000
O    -7.058000000    -1.030000000     5.603000000
H    -7.771000000    -0.947000000     4.969000000
H    -6.281000000    -1.195000000     5.069000000
O     1.306000000     0.558000000    -6.602000000
H     0.908000000     0.985000000    -7.361000000
H     1.773000000     1.261000000    -6.150000000
O    -1.588000000    -1.458000000     5.392000000
H    -2.341000000    -1.834000000     5.848000000
H    -1.865000000    -1.403000000     4.477000000
O    -3.779000000    -3.502000000    -2.387000000
H    -2.880000000    -3.213000000    -2.229000000
H    -3.687000000    -4.386000000    -2.743000000
O    -1.007000000    -2.677000000    -2.810000000
H    -0.223000000    -3.211000000    -2.934000000
H    -0.748000000    -1.801000000    -3.096000000
O    -2.376000000     6.318000000     0.275000000
H    -1.477000000     6.142000000     0.553000000
H    -2.447000000     5.902000000    -0.584000000
O     2.864000000     0.508000000     3.160000000
H     2.137000000    -0.114000000     3.189000000
H     2.512000000     1.307000000     3.554000000
O     1.658000000    -6.397000000     1.239000000
H     2.018000000    -5.935000000     0.482000000
H     2.096000000    -7.248000000     1.232000000
O     3.610000000    -0.661000000    -7.031000000
H     2.770000000    -0.382000000    -6.665000000
H     3.679000000    -0.187000000    -7.860000000
