161
-3041.70963
C    -1.012000000    -0.763000000    -0.799000000
H    -1.615000000    -1.241000000    -1.567000000
C     0.032000000     0.067000000    -1.255000000
H     0.093000000     0.395000000    -2.290000000
C     0.888000000     0.746000000    -0.428000000
C     1.841000000     1.774000000    -0.988000000
H     1.797000000     1.845000000    -2.077000000
H     1.695000000     2.707000000    -0.438000000
H     2.856000000     1.476000000    -0.717000000
C     0.771000000     0.531000000     0.955000000
H     1.509000000     0.964000000     1.625000000
C    -0.193000000    -0.426000000     1.407000000
H    -0.144000000    -0.685000000     2.461000000
C    -1.110000000    -1.029000000     0.481000000
C    -2.197000000    -1.856000000     1.051000000
O    -2.196000000    -2.098000000     2.247000000
O    -3.011000000    -2.409000000     0.335000000
O    -2.506000000    -0.486000000     4.323000000
H    -3.081000000    -1.003000000     4.887000000
H    -2.194000000    -1.108000000     3.666000000
O    -1.106000000     1.784000000     3.672000000
H    -1.559000000     1.008000000     4.001000000
H    -0.855000000     2.266000000     4.460000000
O     0.467000000     3.800000000     1.467000000
H     0.229000000     2.905000000     1.709000000
H    -0.331000000     4.165000000     1.087000000
O    -3.666000000    -2.403000000     6.024000000
H    -3.420000000    -2.975000000     6.751000000
H    -4.021000000    -1.620000000     6.444000000
O     3.376000000     4.267000000    -5.815000000
H     3.503000000     3.387000000    -5.461000000
H     3.622000000     4.193000000    -6.737000000
O     3.872000000     2.612000000     1.838000000
H     3.497000000     3.485000000     1.720000000
H     3.721000000     2.410000000     2.761000000
O     0.118000000    -5.472000000     2.387000000
H     0.344000000    -5.877000000     3.224000000
H     0.832000000    -4.857000000     2.218000000
O     1.995000000    -3.341000000     1.933000000
H     2.728000000    -3.937000000     2.090000000
H     2.333000000    -2.478000000     2.174000000
O     0.342000000     5.658000000    -4.065000000
H     0.892000000     5.733000000    -4.845000000
H    -0.481000000     6.080000000    -4.310000000
O     0.302000000    -4.058000000    -0.259000000
H    -0.188000000    -4.702000000     0.253000000
H     0.997000000    -3.763000000     0.329000000
O    -6.742000000     0.341000000     1.239000000
H    -6.137000000     0.350000000     1.981000000
H    -6.222000000     0.005000000     0.510000000
O     0.051000000    -1.485000000    -6.092000000
H     0.302000000    -2.126000000    -6.757000000
H    -0.713000000    -1.872000000    -5.663000000
O     4.400000000     0.963000000    -2.711000000
H     4.930000000     1.210000000    -1.953000000
H     3.982000000     0.141000000    -2.455000000
O     3.290000000    -1.162000000     3.104000000
H     2.973000000    -0.524000000     3.743000000
H     4.234000000    -1.205000000     3.258000000
O     0.658000000     5.414000000    -1.422000000
H     0.523000000     5.354000000    -2.368000000
H     0.096000000     4.731000000    -1.057000000
O    -4.979000000    -1.041000000     2.797000000
H    -4.030000000    -1.078000000     2.915000000
H    -5.255000000    -1.957000000     2.787000000
O     3.008000000     5.196000000     1.823000000
H     3.231000000     5.525000000     0.952000000
H     2.070000000     5.014000000     1.778000000
O     5.760000000    -2.593000000     1.418000000
H     6.140000000    -2.211000000     2.209000000
H     5.218000000    -1.895000000     1.051000000
O     3.932000000    -0.821000000     0.193000000
H     3.072000000    -0.654000000     0.580000000
H     4.381000000     0.024000000     0.232000000
O    -3.172000000    -5.380000000    -0.897000000
H    -3.183000000    -4.522000000    -1.320000000
H    -2.997000000    -5.191000000     0.025000000
O     0.730000000     4.782000000     4.137000000
H     1.632000000     4.599000000     3.874000000
H     0.194000000     4.355000000     3.469000000
O     1.255000000     0.252000000     4.877000000
H     0.698000000     0.849000000     5.376000000
H     0.663000000    -0.439000000     4.582000000
O    -5.064000000    -0.614000000    -0.683000000
H    -4.670000000    -0.588000000    -1.555000000
H    -4.530000000    -1.244000000    -0.198000000
O     2.132000000    -4.369000000    -3.134000000
H     1.471000000    -3.769000000    -2.787000000
H     2.950000000    -4.085000000    -2.726000000
O    -5.374000000    -3.294000000     1.122000000
H    -4.489000000    -3.047000000     0.852000000
H    -5.819000000    -3.520000000     0.305000000
O    -1.803000000     5.064000000     0.978000000
H    -2.617000000     5.132000000     1.478000000
H    -2.070000000     5.192000000     0.068000000
O    -1.058000000    -3.170000000    -2.813000000
H    -1.372000000    -4.055000000    -2.997000000
H    -0.327000000    -3.297000000    -2.208000000
O    -6.360000000    -3.302000000    -1.785000000
H    -5.415000000    -3.284000000    -1.934000000
H    -6.697000000    -2.562000000    -2.289000000
O    -7.723000000    -3.418000000     2.407000000
H    -7.464000000    -3.501000000     3.325000000
H    -6.905000000    -3.241000000     1.942000000
O    -2.606000000    -4.837000000     1.962000000
H    -1.729000000    -4.833000000     2.346000000
H    -2.885000000    -3.922000000     1.994000000
O    -1.037000000     0.971000000    -7.173000000
H    -0.955000000     0.542000000    -6.321000000
H    -0.134000000     1.135000000    -7.445000000
O     3.529000000     1.352000000    -5.330000000
H     3.974000000     1.374000000    -4.483000000
H     2.721000000     0.867000000    -5.164000000
O    -0.545000000     1.448000000    -4.351000000
H    -0.126000000     2.145000000    -4.854000000
H    -1.130000000     1.906000000    -3.748000000
O    -5.086000000    -6.614000000     1.743000000
H    -4.746000000    -5.745000000     1.530000000
H    -5.120000000    -7.070000000     0.902000000
O     4.939000000     4.628000000    -1.508000000
H     4.464000000     4.854000000    -2.308000000
H     4.567000000     3.788000000    -1.238000000
O     1.363000000     7.535000000     0.242000000
H     0.963000000     6.904000000    -0.356000000
H     0.817000000     7.502000000     1.027000000
O    -6.206000000    -3.299000000     5.129000000
H    -5.268000000    -3.110000000     5.112000000
H    -6.257000000    -4.246000000     5.262000000
O     1.794000000    -0.637000000    -4.288000000
H     1.346000000    -1.286000000    -4.831000000
H     1.088000000    -0.122000000    -3.898000000
O    -5.576000000     1.075000000     4.974000000
H    -5.032000000     1.855000000     4.863000000
H    -5.313000000     0.496000000     4.260000000
O    -4.807000000     2.302000000    -0.519000000
H    -4.967000000     1.364000000    -0.617000000
H    -4.106000000     2.359000000     0.131000000
O     0.620000000    -3.327000000     4.645000000
H     1.498000000    -3.586000000     4.924000000
H     0.708000000    -3.152000000     3.708000000
O    -4.841000000     0.193000000    -3.831000000
H    -5.013000000    -0.311000000    -4.626000000
H    -5.690000000     0.246000000    -3.392000000
O    -1.430000000    -5.099000000     6.199000000
H    -1.374000000    -4.322000000     5.642000000
H    -1.596000000    -4.753000000     7.076000000
O     5.513000000     1.926000000    -0.350000000
H     6.416000000     2.240000000    -0.309000000
H     5.093000000     2.300000000     0.424000000
O    -3.203000000     1.785000000     1.683000000
H    -2.449000000     1.560000000     1.138000000
H    -2.844000000     1.870000000     2.566000000
O    -3.824000000    -2.571000000    -2.410000000
H    -3.483000000    -2.564000000    -3.304000000
H    -3.104000000    -2.236000000    -1.876000000
O    -2.369000000    -0.707000000    -4.798000000
H    -3.171000000    -0.227000000    -4.591000000
H    -1.680000000    -0.234000000    -4.331000000
O     3.186000000     2.264000000     4.476000000
H     2.581000000     1.565000000     4.727000000
H     2.892000000     3.026000000     4.976000000
