161
-3053.05407
C    -0.940000000    -0.385000000    -1.061000000
H    -1.669000000    -0.468000000    -1.863000000
C     0.241000000     0.359000000    -1.180000000
H     0.512000000     0.710000000    -2.173000000
C     1.115000000     0.489000000    -0.158000000
C     2.219000000     1.474000000    -0.327000000
H     3.114000000     0.854000000    -0.404000000
H     1.999000000     2.048000000    -1.230000000
H     2.215000000     2.239000000     0.453000000
C     0.788000000     0.073000000     1.107000000
H     1.473000000     0.201000000     1.941000000
C    -0.435000000    -0.608000000     1.293000000
H    -0.554000000    -1.144000000     2.231000000
C    -1.277000000    -0.818000000     0.204000000
C    -2.550000000    -1.568000000     0.346000000
O    -3.000000000    -1.755000000     1.472000000
O    -3.245000000    -1.707000000    -0.646000000
O    -3.522000000    -0.902000000     4.039000000
H    -3.334000000    -1.718000000     4.502000000
H    -3.453000000    -1.130000000     3.112000000
O    -2.399000000     1.469000000     5.251000000
H    -2.280000000     0.750000000     4.630000000
H    -2.070000000     1.125000000     6.081000000
O    -1.833000000     4.311000000    -2.386000000
H    -1.824000000     3.704000000    -1.646000000
H    -2.745000000     4.321000000    -2.676000000
O     5.012000000     1.844000000    -2.796000000
H     4.855000000     1.639000000    -3.718000000
H     4.267000000     2.388000000    -2.542000000
O     3.175000000     3.217000000     5.487000000
H     3.112000000     3.625000000     4.623000000
H     3.946000000     2.652000000     5.429000000
O     6.694000000     1.915000000     0.773000000
H     7.310000000     1.186000000     0.840000000
H     5.841000000     1.528000000     0.968000000
O    -0.566000000    -4.033000000     2.264000000
H    -1.510000000    -3.950000000     2.398000000
H    -0.262000000    -4.548000000     3.010000000
O    -6.956000000    -3.769000000     3.814000000
H    -7.756000000    -4.071000000     3.385000000
H    -6.510000000    -3.246000000     3.147000000
O     0.287000000    -3.490000000    -0.371000000
H    -0.049000000    -3.375000000     0.518000000
H    -0.180000000    -4.255000000    -0.707000000
O     5.820000000     4.727000000    -3.213000000
H     4.916000000     4.809000000    -2.910000000
H     6.263000000     4.246000000    -2.514000000
O    -3.278000000     2.509000000     1.619000000
H    -2.951000000     2.839000000     0.782000000
H    -2.559000000     2.661000000     2.233000000
O    -0.607000000     0.125000000     6.946000000
H    -0.128000000     0.571000000     7.645000000
H     0.075000000    -0.199000000     6.358000000
O     0.722000000    -2.472000000    -2.873000000
H     0.491000000    -2.466000000    -1.944000000
H    -0.110000000    -2.335000000    -3.328000000
O    -4.319000000    -6.043000000     1.417000000
H    -4.324000000    -5.714000000     0.518000000
H    -5.224000000    -5.943000000     1.714000000
O     5.188000000    -1.211000000     2.599000000
H     4.471000000    -1.278000000     1.968000000
H     5.302000000    -0.270000000     2.732000000
O    -5.524000000    -0.227000000    -0.375000000
H    -5.379000000     0.166000000     0.486000000
H    -4.763000000    -0.791000000    -0.512000000
O     2.969000000    -2.650000000     0.320000000
H     3.061000000    -3.587000000     0.492000000
H     2.040000000    -2.533000000     0.119000000
O     0.175000000    -1.914000000     4.932000000
H     0.370000000    -2.237000000     5.811000000
H    -0.760000000    -2.086000000     4.815000000
O    -4.061000000    -1.221000000    -3.234000000
H    -4.772000000    -1.859000000    -3.172000000
H    -3.546000000    -1.359000000    -2.439000000
O    -5.837000000    -2.511000000     1.824000000
H    -5.133000000    -1.904000000     1.599000000
H    -6.051000000    -2.946000000     0.999000000
O     3.297000000     5.279000000     0.235000000
H     3.187000000     5.317000000     1.185000000
H     3.182000000     6.183000000    -0.056000000
O     5.530000000     0.625000000     4.940000000
H     5.174000000    -0.218000000     4.657000000
H     5.341000000     0.662000000     5.877000000
O    -5.858000000    -3.586000000    -2.972000000
H    -6.684000000    -3.257000000    -2.619000000
H    -6.062000000    -3.829000000    -3.875000000
O     7.126000000     3.036000000    -1.767000000
H     7.150000000     2.553000000    -0.941000000
H     6.445000000     2.600000000    -2.280000000
O     2.185000000    -2.807000000     3.317000000
H     1.428000000    -2.444000000     3.778000000
H     2.028000000    -2.597000000     2.397000000
O    -8.161000000    -2.173000000    -1.450000000
H    -9.033000000    -2.383000000    -1.116000000
H    -7.735000000    -1.706000000    -0.731000000
O     2.141000000     1.044000000    -4.851000000
H     2.982000000     1.379000000    -5.161000000
H     1.559000000     1.120000000    -5.607000000
O     2.060000000     0.339000000     6.218000000
H     2.637000000     0.941000000     6.690000000
H     2.638000000    -0.364000000     5.922000000
O    -3.142000000    -3.932000000     2.893000000
H    -3.533000000    -4.561000000     2.286000000
H    -3.085000000    -3.119000000     2.391000000
O     5.397000000    -0.666000000    -1.428000000
H     4.591000000    -1.176000000    -1.506000000
H     5.294000000     0.043000000    -2.063000000
O     3.305000000     4.490000000    -2.480000000
H     3.123000000     4.348000000    -1.551000000
H     2.441000000     4.579000000    -2.882000000
O     0.563000000     5.289000000    -3.495000000
H     0.820000000     4.850000000    -4.306000000
H    -0.251000000     4.858000000    -3.236000000
O    -5.789000000     1.556000000    -2.931000000
H    -5.164000000     0.833000000    -2.983000000
H    -6.498000000     1.302000000    -3.521000000
O     3.664000000    -1.708000000     5.432000000
H     3.695000000    -2.318000000     6.169000000
H     3.319000000    -2.227000000     4.705000000
O     3.090000000    -1.439000000    -3.264000000
H     2.215000000    -1.823000000    -3.201000000
H     2.936000000    -0.541000000    -3.558000000
O    -5.194000000     0.751000000     2.162000000
H    -4.471000000     1.356000000     1.998000000
H    -4.967000000     0.325000000     2.988000000
O    -2.669000000     2.305000000    -0.979000000
H    -3.434000000     2.043000000    -1.492000000
H    -2.261000000     1.479000000    -0.718000000
O     1.523000000     3.886000000    -5.640000000
H     2.351000000     4.222000000    -5.983000000
H     1.465000000     2.994000000    -5.984000000
O     5.048000000     4.141000000     3.049000000
H     4.708000000     5.034000000     2.994000000
H     5.877000000     4.171000000     2.570000000
O    -0.998000000    -5.792000000    -1.593000000
H    -1.343000000    -6.587000000    -1.187000000
H    -1.775000000    -5.317000000    -1.888000000
O    -3.254000000    -4.896000000     5.518000000
H    -3.610000000    -4.077000000     5.863000000
H    -3.034000000    -4.696000000     4.608000000
O     6.820000000    -2.739000000    -0.298000000
H     6.300000000    -2.153000000    -0.848000000
H     6.201000000    -3.066000000     0.356000000
O    -6.244000000    -4.286000000    -0.266000000
H    -6.096000000    -3.838000000    -1.099000000
H    -6.853000000    -4.993000000    -0.479000000
O    -1.038000000     3.696000000     2.538000000
H    -0.446000000     3.030000000     2.888000000
H    -0.700000000     4.522000000     2.885000000
O    -3.302000000    -4.307000000    -1.864000000
H    -4.090000000    -4.333000000    -2.407000000
H    -3.366000000    -3.478000000    -1.390000000
O    -1.498000000    -1.850000000    -4.375000000
H    -1.616000000    -2.721000000    -4.755000000
H    -2.387000000    -1.553000000    -4.178000000
O     4.226000000     1.617000000     2.097000000
H     4.528000000     2.480000000     2.380000000
H     3.377000000     1.782000000     1.687000000
O     1.124000000     2.114000000     4.284000000
H     1.847000000     2.494000000     4.783000000
H     1.037000000     1.225000000     4.628000000
