161
-3042.00470
C     1.053000000    -0.984000000     0.110000000
H     1.764000000    -1.806000000     0.095000000
C     1.165000000     0.210000000    -0.601000000
H     2.045000000     0.443000000    -1.194000000
C     0.105000000     1.050000000    -0.580000000
C     0.226000000     2.366000000    -1.285000000
H    -0.648000000     2.625000000    -1.886000000
H     0.536000000     3.179000000    -0.625000000
H     0.940000000     2.290000000    -2.108000000
C    -1.114000000     0.669000000    -0.006000000
H    -1.909000000     1.403000000    -0.112000000
C    -1.153000000    -0.479000000     0.771000000
H    -2.042000000    -0.735000000     1.343000000
C    -0.118000000    -1.371000000     0.795000000
C    -0.244000000    -2.634000000     1.555000000
O    -1.369000000    -2.915000000     1.946000000
O     0.769000000    -3.305000000     1.776000000
O    -3.721000000     1.698000000     4.192000000
H    -3.949000000     2.624000000     4.277000000
H    -2.779000000     1.697000000     4.023000000
O    -5.929000000    -0.128000000     4.925000000
H    -5.401000000    -0.823000000     4.532000000
H    -5.601000000     0.677000000     4.524000000
O    -1.808000000    -3.200000000    -2.374000000
H    -0.893000000    -3.422000000    -2.200000000
H    -1.874000000    -3.188000000    -3.329000000
O    -1.077000000    -6.549000000     4.097000000
H    -0.349000000    -5.958000000     4.287000000
H    -1.430000000    -6.779000000     4.956000000
O     2.259000000     5.790000000    -0.900000000
H     1.372000000     5.906000000    -1.242000000
H     2.157000000     5.172000000    -0.176000000
O     3.347000000    -2.278000000     2.239000000
H     3.071000000    -1.538000000     2.779000000
H     2.532000000    -2.629000000     1.878000000
O     4.281000000    -4.637000000     4.090000000
H     3.669000000    -3.935000000     3.870000000
H     4.017000000    -5.369000000     3.533000000
O     2.877000000    -0.281000000     4.088000000
H     2.691000000     0.302000000     3.352000000
H     2.133000000    -0.165000000     4.679000000
O     3.310000000     4.191000000     1.238000000
H     4.089000000     4.746000000     1.217000000
H     2.668000000     4.697000000     1.736000000
O     6.477000000     2.960000000    -0.888000000
H     6.006000000     3.410000000    -1.589000000
H     5.818000000     2.399000000    -0.478000000
O     5.491000000    -0.978000000    -4.600000000
H     6.372000000    -1.046000000    -4.232000000
H     4.991000000    -0.502000000    -3.937000000
O    -2.492000000    -5.266000000     2.224000000
H    -1.977000000    -5.755000000     2.865000000
H    -2.108000000    -4.389000000     2.227000000
O    -3.055000000    -2.406000000     4.269000000
H    -3.859000000    -2.673000000     3.822000000
H    -2.360000000    -2.571000000     3.632000000
O    -2.610000000     3.213000000     1.746000000
H    -3.133000000     2.428000000     1.584000000
H    -3.170000000     3.936000000     1.464000000
O     4.307000000     0.621000000    -2.671000000
H     4.021000000     1.477000000    -2.991000000
H     4.218000000     0.679000000    -1.720000000
O    -3.866000000    -3.007000000     0.673000000
H    -4.562000000    -2.857000000     1.313000000
H    -3.070000000    -2.706000000     1.111000000
O     3.281000000    -3.391000000    -1.680000000
H     3.207000000    -3.989000000    -0.936000000
H     4.223000000    -3.253000000    -1.783000000
O     1.711000000    -6.076000000    -3.430000000
H     1.812000000    -5.634000000    -4.273000000
H     1.803000000    -5.378000000    -2.781000000
O    -2.470000000    -5.757000000    -0.434000000
H    -2.477000000    -5.597000000     0.510000000
H    -2.637000000    -4.898000000    -0.823000000
O    -3.969000000     1.084000000    -2.372000000
H    -4.289000000     1.272000000    -1.490000000
H    -4.372000000     0.246000000    -2.600000000
O    -4.435000000    -2.653000000    -1.964000000
H    -3.490000000    -2.803000000    -1.961000000
H    -4.661000000    -2.532000000    -1.041000000
O    -2.314000000    -0.485000000    -4.100000000
H    -2.308000000    -0.733000000    -3.176000000
H    -3.226000000    -0.258000000    -4.282000000
O     2.666000000    -6.519000000     2.694000000
H     2.295000000    -7.398000000     2.776000000
H     2.187000000    -5.996000000     3.336000000
O     0.469000000    -0.281000000     6.021000000
H    -0.201000000     0.299000000     5.658000000
H     0.021000000    -1.118000000     6.142000000
O     6.055000000    -1.762000000     1.760000000
H     5.128000000    -1.971000000     1.878000000
H     6.471000000    -2.606000000     1.585000000
O     2.394000000     1.955000000     2.411000000
H     1.571000000     2.196000000     1.986000000
H     2.961000000     2.716000000     2.285000000
O    -2.898000000     6.298000000    -4.963000000
H    -2.961000000     6.465000000    -5.903000000
H    -2.985000000     5.348000000    -4.882000000
O    -3.531000000    -3.918000000     6.457000000
H    -3.347000000    -3.459000000     5.638000000
H    -2.748000000    -3.780000000     6.990000000
O     1.092000000     8.378000000     0.049000000
H     0.998000000     8.948000000    -0.715000000
H     1.759000000     7.742000000    -0.207000000
O    -0.303000000     4.196000000    -4.514000000
H     0.166000000     3.552000000    -5.044000000
H    -1.199000000     3.863000000    -4.469000000
O     2.969000000     3.451000000    -4.964000000
H     3.799000000     2.976000000    -4.930000000
H     2.597000000     3.224000000    -5.817000000
O     2.406000000     6.089000000    -5.552000000
H     2.939000000     6.078000000    -6.347000000
H     2.373000000     5.174000000    -5.273000000
O     4.050000000     1.283000000    -0.199000000
H     4.588000000     0.952000000     0.520000000
H     3.687000000     2.104000000     0.132000000
O    -2.901000000     3.416000000    -4.210000000
H    -3.729000000     3.317000000    -4.680000000
H    -2.906000000     2.710000000    -3.564000000
O    -5.118000000     4.745000000     0.315000000
H    -5.356000000     4.869000000    -0.604000000
H    -5.252000000     5.604000000     0.715000000
O    -5.449000000    -2.575000000     3.094000000
H    -6.281000000    -2.272000000     2.731000000
H    -5.548000000    -3.524000000     3.162000000
O     0.005000000     3.619000000     2.440000000
H    -0.838000000     3.450000000     2.019000000
H     0.210000000     4.525000000     2.211000000
O     0.513000000    -4.025000000    -1.698000000
H     0.159000000    -3.894000000    -0.818000000
H     1.350000000    -3.561000000    -1.691000000
O    -2.395000000    -0.155000000     6.338000000
H    -2.522000000    -0.968000000     5.849000000
H    -2.903000000     0.497000000     5.856000000
O     3.211000000    -7.565000000    -0.556000000
H     2.821000000    -6.820000000    -0.099000000
H     4.086000000    -7.265000000    -0.800000000
O     1.237000000     6.200000000     1.994000000
H     0.943000000     7.031000000     1.621000000
H     1.046000000     6.276000000     2.929000000
O     0.022000000     6.193000000    -2.145000000
H    -0.862000000     6.557000000    -2.188000000
H     0.028000000     5.502000000    -2.808000000
O     1.079000000    -4.570000000     4.156000000
H     0.829000000    -4.082000000     3.371000000
H     1.543000000    -3.932000000     4.698000000
O     2.489000000    -2.667000000     6.006000000
H     2.545000000    -1.729000000     5.823000000
H     2.402000000    -2.720000000     6.958000000
O    -5.498000000     2.003000000     0.236000000
H    -5.450000000     2.959000000     0.221000000
H    -6.038000000     1.802000000     1.001000000
O    -0.938000000     2.095000000     4.658000000
H    -1.187000000     2.898000000     5.116000000
H    -0.411000000     2.395000000     3.918000000
O     2.445000000    -5.036000000     0.496000000
H     1.671000000    -4.519000000     0.719000000
H     2.681000000    -5.478000000     1.311000000
O     4.409000000     4.078000000    -2.304000000
H     3.620000000     4.100000000    -2.846000000
H     4.286000000     4.785000000    -1.672000000
