161
-3047.38671
C     0.112000000    -1.257000000    -0.757000000
H     0.332000000    -2.136000000    -1.358000000
C     0.762000000    -0.065000000    -1.037000000
H     1.396000000    -0.050000000    -1.920000000
C     0.617000000     1.059000000    -0.207000000
C     1.355000000     2.336000000    -0.514000000
H     1.174000000     2.590000000    -1.561000000
H     1.047000000     3.168000000     0.122000000
H     2.393000000     2.102000000    -0.269000000
C    -0.183000000     0.919000000     0.886000000
H    -0.346000000     1.747000000     1.571000000
C    -0.912000000    -0.232000000     1.082000000
H    -1.594000000    -0.207000000     1.928000000
C    -0.841000000    -1.307000000     0.206000000
C    -1.538000000    -2.566000000     0.544000000
O    -2.360000000    -2.536000000     1.483000000
O    -1.415000000    -3.572000000    -0.193000000
O    -2.532000000     0.056000000    -1.546000000
H    -1.809000000    -0.252000000    -2.092000000
H    -2.329000000     0.976000000    -1.376000000
O     4.155000000     5.947000000    -3.717000000
H     4.704000000     5.450000000    -4.323000000
H     3.966000000     5.334000000    -3.007000000
O     2.721000000     1.996000000    -4.279000000
H     2.270000000     2.812000000    -4.494000000
H     3.243000000     2.207000000    -3.505000000
O    -2.722000000    -5.397000000    -1.259000000
H    -2.173000000    -4.624000000    -1.128000000
H    -3.414000000    -5.313000000    -0.603000000
O     1.262000000     4.677000000    -4.244000000
H     0.620000000     4.585000000    -3.540000000
H     1.628000000     5.553000000    -4.121000000
O     0.856000000    -4.804000000    -3.531000000
H     0.928000000    -3.884000000    -3.786000000
H     1.746000000    -5.055000000    -3.284000000
O    -0.849000000     2.331000000    -4.804000000
H     0.039000000     2.624000000    -5.009000000
H    -1.141000000     2.920000000    -4.108000000
O    -1.037000000     6.657000000    -0.986000000
H    -1.443000000     6.293000000    -0.199000000
H    -1.608000000     7.383000000    -1.237000000
O    -0.416000000    -6.330000000     3.037000000
H    -1.060000000    -6.618000000     3.684000000
H     0.234000000    -7.033000000     3.018000000
O    -3.324000000    -2.568000000     3.967000000
H    -2.707000000    -3.253000000     4.225000000
H    -3.099000000    -2.375000000     3.057000000
O    -5.981000000    -2.915000000     2.109000000
H    -5.521000000    -2.755000000     1.285000000
H    -5.637000000    -2.251000000     2.707000000
O    -3.028000000     2.772000000     4.404000000
H    -3.393000000     3.556000000     4.815000000
H    -3.722000000     2.461000000     3.823000000
O    -0.395000000    -6.794000000    -2.224000000
H     0.056000000    -6.180000000    -2.803000000
H    -1.232000000    -6.371000000    -2.031000000
O     4.616000000    -1.133000000    -3.380000000
H     3.961000000    -1.608000000    -2.868000000
H     4.210000000    -0.285000000    -3.560000000
O    -2.955000000    -5.265000000     1.927000000
H    -2.495000000    -4.441000000     1.767000000
H    -2.261000000    -5.922000000     1.978000000
O    -5.551000000     1.913000000     3.620000000
H    -6.279000000     2.206000000     3.071000000
H    -5.326000000     1.048000000     3.277000000
O     1.494000000     1.311000000     4.893000000
H     1.592000000     1.906000000     4.150000000
H     0.960000000     0.592000000     4.556000000
O     2.856000000    -2.361000000    -1.269000000
H     1.934000000    -2.595000000    -1.163000000
H     3.335000000    -3.085000000    -0.866000000
O    -5.436000000    -6.062000000     0.657000000
H    -5.444000000    -5.304000000     0.072000000
H    -4.678000000    -5.921000000     1.223000000
O     0.933000000    -2.173000000    -4.475000000
H     0.538000000    -2.530000000    -5.270000000
H     0.799000000    -1.228000000    -4.544000000
O    -1.296000000    -0.237000000    -4.220000000
H    -1.346000000     0.687000000    -4.468000000
H    -1.829000000    -0.689000000    -4.874000000
O     1.679000000     3.296000000     3.204000000
H     2.344000000     3.984000000     3.212000000
H     0.849000000     3.766000000     3.118000000
O    -1.354000000     1.330000000     6.159000000
H    -0.904000000     1.897000000     6.786000000
H    -1.837000000     1.934000000     5.595000000
O    -1.921000000    -4.226000000    -4.166000000
H    -1.085000000    -4.288000000    -3.704000000
H    -2.420000000    -3.576000000    -3.672000000
O     1.308000000    -4.612000000     1.133000000
H     1.067000000    -5.305000000     1.748000000
H     0.577000000    -4.575000000     0.516000000
O    -3.945000000     3.610000000     1.201000000
H    -4.680000000     3.694000000     1.809000000
H    -3.982000000     2.700000000     0.905000000
O    -4.003000000    -5.283000000     4.712000000
H    -4.047000000    -4.454000000     5.189000000
H    -3.965000000    -5.027000000     3.791000000
O    -2.550000000    -8.187000000    -0.388000000
H    -2.357000000    -7.367000000    -0.843000000
H    -3.062000000    -8.695000000    -1.018000000
O     3.002000000     7.577000000    -0.512000000
H     2.781000000     7.545000000    -1.443000000
H     2.405000000     6.952000000    -0.103000000
O     4.344000000     3.357000000    -2.357000000
H     4.373000000     3.196000000    -1.414000000
H     5.229000000     3.154000000    -2.662000000
O    -0.979000000     4.613000000    -2.744000000
H    -1.679000000     5.030000000    -3.248000000
H    -0.876000000     5.169000000    -1.972000000
O     4.530000000    -0.846000000     0.368000000
H     3.840000000    -0.851000000    -0.296000000
H     4.090000000    -1.122000000     1.172000000
O    -4.462000000     0.324000000     0.248000000
H    -5.309000000     0.491000000    -0.165000000
H    -3.854000000     0.223000000    -0.484000000
O    -5.501000000    -2.229000000     5.492000000
H    -4.606000000    -2.246000000     5.152000000
H    -5.461000000    -1.633000000     6.240000000
O     4.371000000     1.991000000     2.296000000
H     3.998000000     2.754000000     2.738000000
H     3.613000000     1.455000000     2.062000000
O     5.730000000     4.265000000     0.801000000
H     5.515000000     3.336000000     0.879000000
H     4.961000000     4.719000000     1.146000000
O    -4.850000000    -0.571000000     2.815000000
H    -4.632000000    -0.325000000     1.916000000
H    -4.030000000    -0.908000000     3.176000000
O     2.287000000    -0.048000000     2.330000000
H     1.647000000     0.312000000     1.715000000
H     1.761000000    -0.539000000     2.961000000
O    -1.205000000    -4.066000000     4.527000000
H    -0.870000000    -4.158000000     5.419000000
H    -0.957000000    -4.881000000     4.092000000
O    -2.203000000     2.692000000    -1.099000000
H    -2.233000000     3.236000000    -1.886000000
H    -1.378000000     2.930000000    -0.675000000
O    -3.666000000    -2.283000000    -2.591000000
H    -4.403000000    -1.918000000    -3.082000000
H    -3.086000000    -1.537000000    -2.441000000
O     6.040000000     1.306000000    -0.093000000
H     5.639000000     0.535000000    -0.494000000
H     5.783000000     1.258000000     0.827000000
O     3.825000000    -4.649000000    -0.147000000
H     2.976000000    -4.768000000     0.279000000
H     4.171000000    -5.536000000    -0.244000000
O    -4.713000000    -2.679000000    -0.168000000
H    -3.847000000    -2.822000000     0.214000000
H    -4.543000000    -2.539000000    -1.100000000
O     0.431000000    -1.171000000     4.204000000
H    -0.007000000    -1.190000000     5.055000000
H    -0.221000000    -1.512000000     3.592000000
O    -1.184000000     4.674000000     0.930000000
H    -2.128000000     4.520000000     0.891000000
H    -0.946000000     4.480000000     1.837000000
O     1.631000000     5.736000000     0.952000000
H     1.516000000     6.141000000     1.812000000
H     0.752000000     5.721000000     0.574000000
O    -0.985000000     4.544000000     3.614000000
H    -1.592000000     5.279000000     3.528000000
H    -1.540000000     3.800000000     3.848000000
