161
-3054.40588
C     0.075000000    -1.278000000    -0.792000000
H     0.194000000    -2.189000000    -1.372000000
C     0.655000000    -0.038000000    -1.167000000
H     1.252000000     0.082000000    -2.068000000
C     0.477000000     1.097000000    -0.378000000
C     1.103000000     2.403000000    -0.688000000
H     1.547000000     2.333000000    -1.683000000
H     0.419000000     3.250000000    -0.607000000
H     1.907000000     2.537000000     0.038000000
C    -0.246000000     1.041000000     0.816000000
H    -0.266000000     1.846000000     1.547000000
C    -0.769000000    -0.210000000     1.244000000
H    -1.162000000    -0.200000000     2.257000000
C    -0.718000000    -1.385000000     0.425000000
C    -1.338000000    -2.743000000     0.726000000
O    -1.998000000    -2.858000000     1.713000000
O    -1.126000000    -3.696000000    -0.009000000
O    -2.198000000     2.180000000    -3.734000000
H    -1.684000000     2.773000000    -4.283000000
H    -2.254000000     2.625000000    -2.889000000
O     2.744000000     5.471000000    -2.291000000
H     3.015000000     4.575000000    -2.489000000
H     1.806000000     5.405000000    -2.114000000
O     2.344000000     2.701000000    -4.208000000
H     2.847000000     2.794000000    -5.017000000
H     3.001000000     2.521000000    -3.536000000
O    -0.403000000    -5.212000000    -2.208000000
H    -0.932000000    -4.815000000    -1.516000000
H     0.351000000    -4.629000000    -2.296000000
O     0.062000000     6.517000000    -3.659000000
H    -0.242000000     6.833000000    -2.808000000
H     0.240000000     7.313000000    -4.160000000
O     3.388000000    -0.914000000    -5.447000000
H     2.525000000    -0.541000000    -5.626000000
H     3.321000000    -1.823000000    -5.741000000
O     1.861000000    -3.459000000    -3.204000000
H     1.463000000    -2.594000000    -3.304000000
H     1.764000000    -3.868000000    -4.064000000
O    -0.145000000     3.976000000    -4.534000000
H     0.700000000     3.534000000    -4.449000000
H     0.021000000     4.870000000    -4.235000000
O    -0.697000000    -6.850000000     3.114000000
H    -1.277000000    -7.612000000     3.128000000
H     0.059000000    -7.115000000     3.638000000
O    -1.603000000    -1.945000000     4.219000000
H    -1.284000000    -2.795000000     4.524000000
H    -1.798000000    -2.081000000     3.292000000
O    -5.754000000    -2.236000000     0.140000000
H    -5.120000000    -2.939000000    -0.001000000
H    -5.672000000    -2.022000000     1.070000000
O     3.059000000    -6.385000000    -2.527000000
H     3.935000000    -6.440000000    -2.147000000
H     2.886000000    -5.446000000    -2.595000000
O     4.377000000    -0.517000000    -2.726000000
H     4.144000000     0.408000000    -2.648000000
H     4.175000000    -0.738000000    -3.636000000
O    -3.046000000    -5.298000000     2.230000000
H    -2.875000000    -4.390000000     1.980000000
H    -2.188000000    -5.646000000     2.470000000
O    -1.751000000    -5.473000000    -4.664000000
H    -1.506000000    -5.254000000    -3.765000000
H    -2.205000000    -4.695000000    -4.985000000
O    -4.210000000     1.622000000     3.290000000
H    -5.087000000     1.967000000     3.120000000
H    -3.722000000     2.368000000     3.637000000
O     0.590000000     2.670000000     5.320000000
H     0.019000000     3.144000000     4.715000000
H     0.483000000     1.750000000     5.080000000
O    -4.873000000    -6.195000000     0.284000000
H    -4.344000000    -6.001000000     1.058000000
H    -4.738000000    -5.444000000    -0.293000000
O    -0.004000000    -1.734000000    -3.898000000
H    -0.484000000    -2.046000000    -4.665000000
H     0.423000000    -0.930000000    -4.192000000
O     0.994000000     0.358000000    -6.049000000
H     1.015000000     1.044000000    -5.381000000
H     0.204000000     0.542000000    -6.557000000
O    -0.760000000     4.238000000     3.575000000
H    -0.790000000     5.181000000     3.738000000
H    -1.048000000     4.143000000     2.667000000
O     1.519000000    -3.341000000     3.541000000
H     1.345000000    -3.852000000     2.750000000
H     0.771000000    -3.519000000     4.110000000
O     0.893000000    -7.534000000    -3.291000000
H     1.719000000    -7.261000000    -2.891000000
H     0.237000000    -6.954000000    -2.904000000
O     0.707000000    -5.035000000     1.510000000
H     0.183000000    -5.748000000     1.876000000
H     0.119000000    -4.596000000     0.896000000
O    -2.600000000     2.923000000     1.205000000
H    -3.553000000     2.833000000     1.188000000
H    -2.273000000     2.049000000     0.990000000
O    -4.678000000    -5.669000000     4.199000000
H    -5.559000000    -5.374000000     3.969000000
H    -4.167000000    -5.542000000     3.400000000
O     4.541000000     2.504000000    -2.097000000
H     4.448000000     2.452000000    -1.146000000
H     5.485000000     2.580000000    -2.241000000
O     3.290000000    -3.269000000    -0.212000000
H     3.326000000    -2.843000000    -1.069000000
H     2.666000000    -3.985000000    -0.327000000
O    -4.373000000     0.183000000    -0.460000000
H    -4.808000000    -0.652000000    -0.286000000
H    -3.967000000     0.067000000    -1.319000000
O    -3.622000000    -1.401000000     6.404000000
H    -2.935000000    -1.308000000     5.744000000
H    -3.839000000    -0.502000000     6.653000000
O     4.512000000     4.051000000     2.748000000
H     3.804000000     4.104000000     3.390000000
H     4.231000000     4.623000000     2.034000000
O    -4.618000000    -1.740000000     2.482000000
H    -4.552000000    -0.827000000     2.761000000
H    -3.719000000    -1.993000000     2.272000000
O     2.452000000    -0.658000000     3.440000000
H     1.683000000    -0.225000000     3.810000000
H     2.218000000    -1.586000000     3.421000000
O    -0.487000000    -4.564000000     5.067000000
H    -0.937000000    -4.945000000     5.821000000
H    -0.359000000    -5.299000000     4.468000000
O    -2.428000000     3.824000000    -1.735000000
H    -2.900000000     4.509000000    -2.209000000
H    -1.742000000     4.292000000    -1.259000000
O    -3.202000000    -0.091000000    -2.805000000
H    -2.572000000    -0.616000000    -3.299000000
H    -2.979000000     0.815000000    -3.019000000
O     5.800000000    -0.915000000    -0.566000000
H     5.109000000    -0.434000000    -0.110000000
H     5.517000000    -0.932000000    -1.480000000
O     4.504000000     2.471000000     0.567000000
H     3.985000000     1.681000000     0.717000000
H     4.405000000     2.979000000     1.372000000
O     2.859000000    -6.365000000     0.512000000
H     2.224000000    -5.904000000     1.060000000
H     2.449000000    -7.211000000     0.331000000
O    -3.882000000    -4.035000000    -1.311000000
H    -3.032000000    -3.598000000    -1.260000000
H    -4.080000000    -4.064000000    -2.247000000
O     2.968000000     6.936000000     1.576000000
H     2.476000000     7.746000000     1.710000000
H     2.366000000     6.243000000     1.850000000
O    -1.943000000    -8.050000000    -0.523000000
H    -1.998000000    -7.097000000    -0.599000000
H    -2.651000000    -8.375000000    -1.079000000
O     0.166000000     0.087000000     4.948000000
H    -0.458000000    -0.558000000     4.617000000
H     0.208000000    -0.081000000     5.889000000
O    -3.359000000    -3.403000000    -4.010000000
H    -2.973000000    -2.616000000    -4.394000000
H    -4.209000000    -3.488000000    -4.443000000
O    -1.816000000     5.613000000     0.469000000
H    -2.249000000     6.180000000     1.106000000
H    -2.277000000     4.777000000     0.540000000
O     3.190000000     0.053000000     0.808000000
H     2.927000000    -0.176000000     1.699000000
H     2.673000000    -0.527000000     0.249000000
O    -4.885000000     2.931000000    -0.386000000
H    -4.052000000     3.265000000    -0.718000000
H    -4.746000000     1.988000000    -0.294000000
O    -0.467000000     7.298000000    -1.142000000
H    -0.088000000     7.984000000    -0.592000000
H    -1.033000000     6.802000000    -0.551000000
