161
-3014.34938
C    -0.823000000    -1.171000000    -0.575000000
H    -1.488000000    -1.885000000    -1.055000000
C    -0.684000000     0.103000000    -1.168000000
H    -1.161000000     0.310000000    -2.122000000
C     0.182000000     1.047000000    -0.571000000
C     0.430000000     2.447000000    -1.153000000
H    -0.070000000     3.284000000    -0.660000000
H     1.503000000     2.641000000    -1.097000000
H     0.093000000     2.393000000    -2.190000000
C     0.706000000     0.795000000     0.682000000
H     1.352000000     1.526000000     1.162000000
C     0.583000000    -0.461000000     1.312000000
H     1.004000000    -0.616000000     2.302000000
C    -0.280000000    -1.377000000     0.670000000
C    -0.429000000    -2.675000000     1.339000000
O    -0.624000000    -2.681000000     2.506000000
O    -0.289000000    -3.679000000     0.623000000
O     4.764000000     3.424000000    -1.780000000
H     5.071000000     2.545000000    -2.002000000
H     4.552000000     3.825000000    -2.623000000
O    -3.184000000    -1.859000000     3.311000000
H    -2.404000000    -2.247000000     2.915000000
H    -2.969000000    -1.788000000     4.242000000
O    -1.012000000    -0.291000000     7.082000000
H    -0.535000000    -0.829000000     7.714000000
H    -1.242000000    -0.896000000     6.377000000
O    -4.926000000    -0.889000000    -4.603000000
H    -4.881000000    -1.812000000    -4.356000000
H    -5.863000000    -0.701000000    -4.659000000
O     3.098000000     6.300000000     1.548000000
H     2.436000000     5.636000000     1.739000000
H     3.754000000     5.842000000     1.024000000
O    -1.410000000     5.382000000    -4.468000000
H    -0.482000000     5.352000000    -4.234000000
H    -1.849000000     5.675000000    -3.669000000
O    -1.570000000     7.107000000     1.141000000
H    -2.321000000     7.125000000     1.734000000
H    -0.872000000     7.548000000     1.625000000
O    -5.430000000    -3.386000000    -3.966000000
H    -6.066000000    -4.095000000    -3.868000000
H    -4.582000000    -3.803000000    -3.817000000
O    -5.314000000    -3.781000000     4.217000000
H    -5.530000000    -4.535000000     3.668000000
H    -4.357000000    -3.748000000     4.213000000
O     3.601000000     3.459000000     0.803000000
H     3.473000000     3.634000000    -0.129000000
H     4.171000000     2.690000000     0.827000000
O    -0.398000000    -2.524000000     5.361000000
H     0.502000000    -2.839000000     5.439000000
H    -0.503000000    -2.326000000     4.430000000
O     5.034000000    -2.525000000     2.339000000
H     4.607000000    -3.298000000     2.708000000
H     5.966000000    -2.661000000     2.509000000
O    -2.831000000    -7.338000000     3.122000000
H    -2.712000000    -6.437000000     2.823000000
H    -2.312000000    -7.863000000     2.512000000
O     1.997000000    -3.752000000    -0.566000000
H     2.117000000    -2.803000000    -0.514000000
H     1.126000000    -3.904000000    -0.200000000
O     4.778000000     0.082000000     3.414000000
H     4.934000000     0.181000000     2.475000000
H     4.912000000    -0.851000000     3.583000000
O     1.013000000    -5.573000000     2.303000000
H     0.593000000    -4.714000000     2.356000000
H     0.575000000    -6.009000000     1.572000000
O     5.683000000     5.184000000     0.300000000
H     5.381000000     4.616000000    -0.410000000
H     5.622000000     4.639000000     1.084000000
O     2.310000000    -0.535000000     4.546000000
H     3.078000000    -0.010000000     4.316000000
H     1.568000000     0.051000000     4.400000000
O     3.176000000     0.713000000    -4.259000000
H     3.564000000     0.127000000    -3.610000000
H     3.757000000     0.651000000    -5.017000000
O    -4.496000000    -3.822000000     0.508000000
H    -4.086000000    -3.079000000     0.065000000
H    -4.806000000    -3.463000000     1.339000000
O     3.931000000     3.981000000     4.782000000
H     2.987000000     4.109000000     4.683000000
H     4.220000000     4.729000000     5.305000000
O    -0.902000000    -2.497000000    -5.014000000
H    -0.384000000    -1.699000000    -4.907000000
H    -1.647000000    -2.229000000    -5.552000000
O     5.125000000     1.053000000     0.452000000
H     4.798000000     0.837000000    -0.421000000
H     6.071000000     1.145000000     0.337000000
O     1.053000000    -7.281000000    -1.127000000
H     1.314000000    -8.192000000    -1.261000000
H     1.647000000    -6.777000000    -1.682000000
O     1.161000000     5.455000000    -4.238000000
H     1.450000000     4.575000000    -4.479000000
H     1.831000000     6.035000000    -4.601000000
O     4.006000000    -1.900000000    -3.063000000
H     3.468000000    -1.756000000    -2.285000000
H     4.901000000    -1.961000000    -2.728000000
O    -2.724000000    -3.989000000    -3.532000000
H    -2.168000000    -4.159000000    -2.772000000
H    -2.175000000    -3.470000000    -4.120000000
O    -1.939000000     1.619000000     3.028000000
H    -2.880000000     1.660000000     3.196000000
H    -1.860000000     1.102000000     2.227000000
O    -2.538000000    -4.859000000     1.954000000
H    -1.787000000    -4.384000000     1.598000000
H    -3.196000000    -4.820000000     1.260000000
O    -1.658000000     1.607000000    -6.214000000
H    -2.268000000     2.216000000    -6.630000000
H    -0.791000000     1.935000000    -6.452000000
O    -5.788000000    -1.354000000     2.485000000
H    -4.908000000    -1.489000000     2.836000000
H    -6.247000000    -2.173000000     2.669000000
O    -0.801000000     4.105000000     3.178000000
H    -1.397000000     4.083000000     3.927000000
H    -0.866000000     3.229000000     2.796000000
O     0.102000000     1.146000000     4.898000000
H    -0.611000000     1.452000000     4.338000000
H    -0.322000000     0.931000000     5.729000000
O     3.503000000    -1.476000000    -0.364000000
H     3.193000000    -0.782000000     0.218000000
H     4.204000000    -1.906000000     0.127000000
O    -5.580000000     2.574000000    -2.703000000
H    -4.785000000     2.125000000    -2.990000000
H    -5.483000000     3.467000000    -3.034000000
O    -3.289000000     1.581000000    -3.925000000
H    -3.677000000     0.706000000    -3.904000000
H    -2.574000000     1.511000000    -4.557000000
O     2.273000000    -2.379000000    -5.150000000
H     1.848000000    -1.524000000    -5.212000000
H     2.982000000    -2.249000000    -4.521000000
O     0.432000000     8.057000000    -2.620000000
H    -0.475000000     8.044000000    -2.313000000
H     0.771000000     7.189000000    -2.400000000
O     0.441000000    -0.070000000    -4.825000000
H     1.005000000     0.421000000    -4.228000000
H    -0.245000000     0.550000000    -5.071000000
O     2.327000000     3.156000000    -4.663000000
H     1.819000000     2.868000000    -5.421000000
H     2.618000000     2.345000000    -4.247000000
O    -1.384000000    -8.267000000     0.428000000
H    -1.854000000    -8.643000000    -0.316000000
H    -0.618000000    -7.845000000     0.039000000
O    -2.178000000    -4.541000000     4.641000000
H    -1.459000000    -3.925000000     4.786000000
H    -2.063000000    -4.834000000     3.738000000
O     2.293000000    -3.249000000     5.300000000
H     2.821000000    -3.046000000     6.072000000
H     2.096000000    -2.395000000     4.914000000
O    -0.914000000    -5.045000000    -1.771000000
H    -0.139000000    -5.603000000    -1.714000000
H    -0.814000000    -4.422000000    -1.051000000
O     4.189000000    -5.336000000    -1.371000000
H     3.908000000    -5.640000000    -2.234000000
H     3.447000000    -4.830000000    -1.042000000
O     0.705000000     5.167000000     1.275000000
H     0.049000000     5.847000000     1.120000000
H     0.285000000     4.564000000     1.887000000
O    -4.038000000     4.683000000     1.099000000
H    -4.245000000     5.227000000     1.858000000
H    -3.219000000     5.045000000     0.761000000
O    -1.852000000     7.201000000    -1.695000000
H    -2.721000000     7.602000000    -1.715000000
H    -1.501000000     7.434000000    -0.836000000
