161
-3020.74785
C    -0.221000000    -1.271000000    -0.650000000
H    -0.237000000    -2.146000000    -1.294000000
C     0.499000000    -0.206000000    -1.146000000
H     1.051000000    -0.364000000    -2.069000000
C     0.618000000     0.951000000    -0.384000000
C     1.472000000     2.067000000    -0.944000000
H     2.071000000     2.659000000    -0.249000000
H     2.159000000     1.714000000    -1.716000000
H     0.852000000     2.758000000    -1.519000000
C     0.034000000     1.049000000     0.828000000
H     0.304000000     1.898000000     1.451000000
C    -0.746000000     0.027000000     1.257000000
H    -1.176000000    -0.002000000     2.254000000
C    -0.947000000    -1.149000000     0.550000000
C    -1.641000000    -2.412000000     1.106000000
O    -2.259000000    -2.197000000     2.112000000
O    -1.829000000    -3.382000000     0.415000000
O     2.481000000     5.423000000    -2.570000000
H     3.066000000     4.791000000    -2.988000000
H     2.696000000     6.259000000    -2.983000000
O    -3.779000000    -0.415000000     3.330000000
H    -3.263000000    -1.116000000     2.933000000
H    -3.928000000    -0.706000000     4.229000000
O    -3.557000000    -1.387000000     6.539000000
H    -4.466000000    -1.664000000     6.655000000
H    -3.164000000    -2.076000000     6.004000000
O    -5.209000000     2.941000000     4.327000000
H    -6.017000000     3.142000000     3.854000000
H    -4.573000000     2.742000000     3.641000000
O    -6.910000000    -4.711000000     3.297000000
H    -5.998000000    -4.431000000     3.219000000
H    -7.011000000    -5.390000000     2.631000000
O     1.691000000     5.243000000     1.741000000
H     1.885000000     6.025000000     1.223000000
H     2.312000000     4.586000000     1.424000000
O    -1.364000000     5.737000000     0.620000000
H    -2.185000000     5.247000000     0.655000000
H    -0.812000000     5.236000000     0.019000000
O    -4.970000000    -5.494000000     0.134000000
H    -5.238000000    -5.322000000    -0.769000000
H    -5.719000000    -5.945000000     0.524000000
O     2.625000000     1.849000000     5.360000000
H     3.278000000     1.467000000     5.947000000
H     3.047000000     2.635000000     5.012000000
O    -2.085000000    -2.874000000     4.628000000
H    -1.169000000    -3.048000000     4.845000000
H    -2.064000000    -2.588000000     3.715000000
O     5.811000000    -1.341000000    -0.455000000
H     5.960000000    -1.971000000     0.250000000
H     5.406000000    -0.589000000    -0.023000000
O    -3.214000000    -7.150000000     2.385000000
H    -2.911000000    -6.249000000     2.494000000
H    -3.103000000    -7.329000000     1.451000000
O     3.181000000    -2.682000000    -0.176000000
H     3.959000000    -2.142000000    -0.038000000
H     2.541000000    -2.345000000     0.451000000
O     0.208000000    -4.978000000    -0.525000000
H    -0.525000000    -4.443000000    -0.223000000
H     0.137000000    -4.967000000    -1.480000000
O     4.501000000     3.591000000     1.400000000
H     5.156000000     3.977000000     0.819000000
H     4.929000000     3.561000000     2.256000000
O    -0.414000000    -3.100000000    -4.244000000
H    -0.875000000    -2.307000000    -3.971000000
H     0.002000000    -2.862000000    -5.073000000
O     1.398000000    -0.595000000     4.370000000
H     1.682000000     0.174000000     4.864000000
H     0.538000000    -0.355000000     4.026000000
O    -0.638000000     1.430000000    -4.148000000
H    -1.271000000     1.876000000    -4.711000000
H     0.214000000     1.651000000    -4.524000000
O    -6.515000000    -2.884000000    -0.143000000
H    -7.442000000    -3.118000000    -0.179000000
H    -6.054000000    -3.720000000    -0.219000000
O     1.044000000    -7.453000000     0.351000000
H     1.127000000    -6.516000000     0.174000000
H     0.251000000    -7.716000000    -0.117000000
O    -1.841000000    -0.934000000    -3.709000000
H    -1.289000000    -0.152000000    -3.710000000
H    -2.532000000    -0.740000000    -4.342000000
O     1.193000000    -4.461000000     2.163000000
H     0.470000000    -3.959000000     2.541000000
H     0.952000000    -4.573000000     1.244000000
O     4.839000000     0.810000000     1.116000000
H     4.121000000     0.411000000     1.608000000
H     4.529000000     1.692000000     0.913000000
O     2.876000000    -1.787000000    -3.342000000
H     2.640000000    -2.028000000    -2.446000000
H     3.744000000    -1.392000000    -3.263000000
O    -3.604000000    -3.623000000    -3.840000000
H    -3.433000000    -3.842000000    -2.924000000
H    -3.197000000    -2.765000000    -3.961000000
O    -1.156000000     1.882000000     4.191000000
H    -1.984000000     1.946000000     3.716000000
H    -0.663000000     2.656000000     3.918000000
O    -4.356000000    -4.104000000     2.320000000
H    -3.527000000    -3.688000000     2.083000000
H    -4.506000000    -4.748000000     1.628000000
O    -4.591000000    -0.920000000     0.205000000
H    -5.175000000    -1.622000000    -0.080000000
H    -4.006000000    -1.336000000     0.837000000
O     0.670000000    -5.495000000    -3.202000000
H     1.035000000    -6.083000000    -3.863000000
H     0.188000000    -4.839000000    -3.705000000
O    -1.621000000     1.190000000     6.863000000
H    -1.189000000     1.185000000     6.009000000
H    -2.546000000     1.041000000     6.664000000
O     3.350000000    -1.521000000     2.324000000
H     2.692000000    -1.181000000     2.930000000
H     3.693000000    -2.303000000     2.756000000
O     6.473000000     4.164000000    -0.453000000
H     7.402000000     4.122000000    -0.225000000
H     6.446000000     3.952000000    -1.386000000
O     1.531000000    -1.621000000    -5.804000000
H     2.350000000    -1.171000000    -6.009000000
H     1.332000000    -1.359000000    -4.905000000
O     1.915000000     2.072000000    -5.524000000
H     1.917000000     1.705000000    -6.408000000
H     2.050000000     3.011000000    -5.653000000
O     0.120000000     6.438000000    -1.936000000
H    -0.623000000     5.842000000    -2.025000000
H     0.881000000     5.910000000    -2.178000000
O    -2.580000000     1.257000000    -1.305000000
H    -2.045000000     0.558000000    -1.681000000
H    -2.676000000     1.015000000    -0.383000000
O    -1.808000000     4.202000000    -4.649000000
H    -1.076000000     4.788000000    -4.839000000
H    -1.714000000     3.994000000    -3.720000000
O     6.417000000     3.929000000    -3.239000000
H     6.721000000     4.740000000    -3.647000000
H     5.473000000     3.920000000    -3.397000000
O     3.782000000     3.517000000    -3.870000000
H     3.967000000     3.650000000    -4.800000000
H     3.310000000     2.685000000    -3.836000000
O    -2.291000000    -7.489000000    -0.216000000
H    -2.813000000    -8.101000000    -0.734000000
H    -1.852000000    -6.940000000    -0.865000000
O    -4.260000000    -4.423000000     5.024000000
H    -3.444000000    -3.940000000     5.155000000
H    -4.461000000    -4.307000000     4.095000000
O     0.414000000    -2.897000000     5.366000000
H     1.074000000    -3.565000000     5.549000000
H     0.919000000    -2.128000000     5.101000000
O    -2.814000000    -4.841000000    -1.471000000
H    -3.471000000    -5.438000000    -1.114000000
H    -2.545000000    -4.306000000    -0.725000000
O     4.269000000    -3.689000000    -5.075000000
H     3.525000000    -3.144000000    -4.818000000
H     5.036000000    -3.202000000    -4.775000000
O     3.192000000    -5.233000000    -1.811000000
H     2.296000000    -5.382000000    -2.113000000
H     3.122000000    -4.494000000    -1.207000000
O    -0.184000000     4.248000000     3.299000000
H     0.645000000     4.610000000     2.987000000
H    -0.834000000     4.564000000     2.671000000
O    -3.497000000     2.253000000     2.482000000
H    -3.611000000     1.304000000     2.429000000
H    -3.631000000     2.561000000     1.586000000
O    -1.828000000     4.147000000    -1.875000000
H    -2.784000000     4.132000000    -1.920000000
H    -1.586000000     3.252000000    -1.636000000
