161
-3056.77393
C     1.102000000     1.089000000     0.160000000
H     1.838000000     1.889000000     0.202000000
C     0.016000000     1.142000000    -0.752000000
H    -0.061000000     1.957000000    -1.467000000
C    -0.896000000     0.050000000    -0.846000000
C    -2.056000000     0.024000000    -1.798000000
H    -2.836000000     0.712000000    -1.468000000
H    -1.662000000     0.219000000    -2.798000000
H    -2.387000000    -1.017000000    -1.790000000
C    -0.764000000    -1.062000000    -0.047000000
H    -1.528000000    -1.833000000     0.013000000
C     0.288000000    -1.082000000     0.872000000
H     0.251000000    -1.940000000     1.539000000
C     1.210000000    -0.058000000     0.957000000
C     2.189000000    -0.029000000     2.093000000
O     2.358000000    -0.996000000     2.853000000
O     2.944000000     0.928000000     2.269000000
O     4.590000000    -0.740000000    -0.021000000
H     3.819000000    -1.282000000    -0.192000000
H     4.697000000    -0.769000000     0.929000000
O     6.298000000    -0.144000000     5.293000000
H     5.518000000     0.325000000     4.996000000
H     6.006000000    -0.631000000     6.063000000
O    -3.702000000    -2.927000000    -0.250000000
H    -3.033000000    -3.279000000     0.337000000
H    -4.519000000    -3.004000000     0.244000000
O    -1.517000000     0.395000000     3.144000000
H    -1.238000000     1.244000000     3.486000000
H    -1.062000000     0.313000000     2.306000000
O     4.283000000     1.542000000    -3.962000000
H     3.659000000     2.268000000    -3.996000000
H     3.737000000     0.763000000    -3.856000000
O    -2.182000000    -3.949000000     1.851000000
H    -2.517000000    -4.733000000     2.286000000
H    -2.211000000    -3.270000000     2.525000000
O    -4.626000000    -2.878000000    -3.572000000
H    -3.744000000    -3.204000000    -3.396000000
H    -4.488000000    -2.052000000    -4.037000000
O    -5.097000000     0.396000000    -2.920000000
H    -4.226000000     0.195000000    -3.264000000
H    -5.679000000     0.306000000    -3.674000000
O    -3.467000000    -0.467000000    -4.963000000
H    -2.681000000    -0.856000000    -5.347000000
H    -4.017000000    -0.246000000    -5.715000000
O    -1.414000000    -2.185000000    -6.131000000
H    -1.414000000    -3.132000000    -6.271000000
H    -1.664000000    -1.817000000    -6.979000000
O    -2.517000000     5.443000000    -3.158000000
H    -1.675000000     5.495000000    -2.704000000
H    -2.285000000     5.365000000    -4.083000000
O     4.271000000     4.172000000    -1.420000000
H     5.122000000     4.300000000    -1.840000000
H     4.426000000     3.489000000    -0.768000000
O    -0.250000000    -5.054000000     0.135000000
H    -0.986000000    -4.578000000     0.519000000
H    -0.657000000    -5.693000000    -0.450000000
O     5.124000000    -0.966000000     2.609000000
H     5.570000000    -0.864000000     3.450000000
H     4.202000000    -0.802000000     2.805000000
O     1.899000000    -6.528000000     0.790000000
H     2.123000000    -6.408000000     1.713000000
H     1.112000000    -5.999000000     0.663000000
O    -6.468000000    -1.802000000    -1.495000000
H    -5.899000000    -1.188000000    -1.959000000
H    -5.927000000    -2.136000000    -0.780000000
O    -4.064000000     3.660000000    -1.925000000
H    -3.707000000     3.037000000    -2.557000000
H    -3.566000000     4.464000000    -2.075000000
O    -5.338000000    -4.716000000    -1.735000000
H    -4.570000000    -4.328000000    -1.314000000
H    -5.568000000    -4.097000000    -2.428000000
O     5.770000000     4.833000000     1.998000000
H     4.998000000     5.308000000     2.306000000
H     5.491000000     4.429000000     1.177000000
O    -0.033000000    -2.381000000    -3.380000000
H    -0.343000000    -2.193000000    -4.266000000
H     0.479000000    -3.185000000    -3.471000000
O     0.089000000     1.967000000    -5.290000000
H     0.255000000     2.883000000    -5.513000000
H    -0.219000000     1.575000000    -6.107000000
O    -5.783000000     1.181000000    -0.338000000
H    -5.404000000     1.091000000    -1.212000000
H    -5.192000000     0.688000000     0.231000000
O     2.009000000     3.612000000     2.979000000
H     1.515000000     3.364000000     3.761000000
H     2.402000000     2.793000000     2.675000000
O    -2.360000000    -3.784000000    -2.499000000
H    -1.668000000    -3.122000000    -2.493000000
H    -3.081000000    -3.380000000    -2.016000000
O     1.393000000    -1.632000000     5.332000000
H     1.092000000    -2.541000000     5.338000000
H     1.567000000    -1.444000000     4.410000000
O     7.218000000    -2.285000000     1.777000000
H     6.341000000    -1.903000000     1.798000000
H     7.663000000    -1.906000000     2.536000000
O    -2.207000000     6.041000000     0.140000000
H    -2.190000000     5.346000000     0.797000000
H    -1.437000000     5.876000000    -0.404000000
O    -2.996000000     3.007000000    -4.896000000
H    -2.732000000     2.143000000    -5.211000000
H    -2.181000000     3.507000000    -4.854000000
O     3.097000000     6.351000000     2.503000000
H     2.754000000     5.458000000     2.548000000
H     3.352000000     6.555000000     3.402000000
O     2.878000000     6.344000000    -2.073000000
H     3.413000000     7.002000000    -1.629000000
H     3.111000000     5.519000000    -1.647000000
O    -1.113000000     2.908000000     1.373000000
H    -2.052000000     3.082000000     1.435000000
H    -1.021000000     2.370000000     0.586000000
O    -7.356000000     3.446000000    -2.003000000
H    -7.739000000     3.532000000    -1.130000000
H    -6.436000000     3.238000000    -1.841000000
O    -2.444000000    -2.066000000     3.928000000
H    -3.343000000    -1.904000000     4.214000000
H    -2.144000000    -1.221000000     3.592000000
O     1.210000000     1.046000000     5.798000000
H     1.289000000     0.094000000     5.746000000
H     0.490000000     1.260000000     5.205000000
O     4.316000000     2.470000000     0.591000000
H     3.804000000     2.285000000     1.379000000
H     4.587000000     1.608000000     0.274000000
O     5.901000000     2.988000000     4.265000000
H     5.769000000     3.628000000     3.565000000
H     5.018000000     2.700000000     4.495000000
O     4.079000000    -3.473000000     6.617000000
H     4.705000000    -3.812000000     5.977000000
H     3.223000000    -3.717000000     6.267000000
O     6.172000000     0.841000000    -1.723000000
H     5.855000000     0.890000000    -2.625000000
H     5.633000000     0.163000000    -1.316000000
O    -0.050000000     5.872000000    -1.849000000
H     0.335000000     5.482000000    -1.064000000
H     0.696000000     6.228000000    -2.331000000
O     3.732000000     1.102000000     4.716000000
H     2.890000000     0.944000000     5.141000000
H     3.558000000     0.971000000     3.784000000
O     0.383000000    -5.065000000     3.282000000
H    -0.393000000    -4.992000000     2.726000000
H     0.977000000    -4.390000000     2.955000000
O    -3.780000000     3.288000000     0.883000000
H    -4.459000000     2.702000000     1.217000000
H    -3.913000000     3.294000000    -0.065000000
O     2.715000000    -3.774000000     2.842000000
H     2.810000000    -2.823000000     2.800000000
H     3.480000000    -4.112000000     2.377000000
O     7.732000000     1.675000000     1.861000000
H     8.606000000     1.412000000     2.150000000
H     7.156000000     1.429000000     2.586000000
O    -3.946000000    -0.077000000     1.383000000
H    -3.346000000     0.001000000     2.124000000
H    -4.184000000    -1.004000000     1.364000000
O     1.722000000     0.269000000    -3.838000000
H     1.228000000    -0.385000000    -3.343000000
H     1.064000000     0.907000000    -4.115000000
O     0.792000000     4.816000000     0.599000000
H     1.629000000     4.943000000     1.045000000
H     0.350000000     4.138000000     1.109000000
O    -0.511000000     2.820000000     4.439000000
H    -1.080000000     3.496000000     4.072000000
H    -0.218000000     3.182000000     5.276000000
