161
-3061.96912
C     0.419000000     1.208000000     0.715000000
H     0.529000000     2.172000000     1.204000000
C    -0.543000000     1.166000000    -0.324000000
H    -1.119000000     2.052000000    -0.579000000
C    -0.756000000     0.010000000    -1.045000000
C    -1.822000000    -0.133000000    -2.009000000
H    -1.337000000    -0.732000000    -2.782000000
H    -2.736000000    -0.547000000    -1.578000000
H    -1.965000000     0.883000000    -2.381000000
C    -0.046000000    -1.191000000    -0.584000000
H    -0.333000000    -2.128000000    -1.054000000
C     0.778000000    -1.204000000     0.529000000
H     1.352000000    -2.068000000     0.854000000
C     1.055000000     0.044000000     1.116000000
C     2.006000000     0.165000000     2.303000000
O     2.758000000    -0.800000000     2.526000000
O     1.765000000     1.097000000     3.094000000
O     4.925000000    -0.964000000     0.614000000
H     4.299000000    -0.952000000    -0.109000000
H     4.439000000    -0.608000000     1.358000000
O     4.768000000     0.251000000     6.583000000
H     3.839000000     0.205000000     6.358000000
H     4.829000000    -0.172000000     7.439000000
O    -2.402000000    -3.544000000     0.694000000
H    -2.986000000    -3.829000000     1.397000000
H    -1.771000000    -4.258000000     0.602000000
O     2.700000000     2.614000000     6.920000000
H     2.367000000     1.741000000     6.712000000
H     3.491000000     2.702000000     6.388000000
O    -0.690000000     0.948000000     4.190000000
H    -0.381000000     1.093000000     5.085000000
H     0.103000000     0.971000000     3.656000000
O     5.441000000    -3.712000000     3.555000000
H     5.736000000    -4.506000000     4.001000000
H     6.245000000    -3.226000000     3.376000000
O    -0.705000000    -5.083000000     2.459000000
H    -1.303000000    -5.571000000     3.025000000
H    -0.965000000    -4.169000000     2.567000000
O    -2.985000000    -4.341000000    -4.063000000
H    -2.114000000    -4.046000000    -3.798000000
H    -3.079000000    -4.031000000    -4.964000000
O    -5.981000000     0.511000000    -4.451000000
H    -5.190000000    -0.022000000    -4.532000000
H    -6.577000000     0.157000000    -5.111000000
O    -0.807000000    -2.046000000    -5.466000000
H    -0.091000000    -1.687000000    -5.990000000
H    -1.560000000    -1.497000000    -5.681000000
O     3.788000000     1.886000000    -2.216000000
H     4.075000000     1.882000000    -3.129000000
H     4.586000000     2.050000000    -1.715000000
O    -2.073000000     6.501000000    -2.624000000
H    -2.912000000     6.047000000    -2.713000000
H    -1.463000000     5.822000000    -2.334000000
O     3.433000000     3.875000000     0.052000000
H     3.060000000     3.640000000    -0.798000000
H     4.226000000     3.343000000     0.121000000
O     2.428000000    -4.513000000     0.902000000
H     2.441000000    -4.494000000     1.859000000
H     2.980000000    -5.259000000     0.669000000
O     5.384000000    -0.474000000     3.637000000
H     5.281000000    -0.644000000     4.574000000
H     4.725000000    -1.028000000     3.219000000
O    -6.138000000    -0.331000000    -1.494000000
H    -6.975000000     0.071000000    -1.726000000
H    -5.786000000    -0.648000000    -2.325000000
O    -6.274000000     2.912000000    -2.981000000
H    -6.049000000     2.091000000    -3.419000000
H    -5.436000000     3.364000000    -2.876000000
O     2.945000000    -3.286000000    -1.478000000
H     2.729000000    -3.446000000    -0.560000000
H     3.330000000    -2.409000000    -1.484000000
O    -4.189000000    -3.071000000    -1.810000000
H    -3.603000000    -3.061000000    -1.053000000
H    -3.812000000    -3.726000000    -2.397000000
O    -0.203000000    -4.085000000    -3.787000000
H    -0.341000000    -3.261000000    -4.253000000
H     0.748000000    -4.178000000    -3.741000000
O     0.424000000     1.168000000    -5.492000000
H     0.333000000     1.735000000    -4.727000000
H    -0.432000000     1.202000000    -5.919000000
O    -4.580000000     1.336000000    -0.066000000
H    -5.087000000     0.686000000    -0.553000000
H    -4.111000000     0.827000000     0.595000000
O     1.377000000     3.660000000     3.482000000
H     0.802000000     3.644000000     4.247000000
H     1.446000000     2.744000000     3.214000000
O    -0.127000000    -5.027000000    -0.253000000
H     0.235000000    -4.552000000     0.495000000
H     0.560000000    -4.986000000    -0.918000000
O     0.766000000    -2.277000000     5.429000000
H     0.373000000    -2.108000000     4.573000000
H     1.606000000    -2.689000000     5.229000000
O     6.823000000    -2.852000000     0.424000000
H     6.183000000    -2.145000000     0.343000000
H     7.222000000    -2.716000000     1.284000000
O    -6.194000000    -2.739000000    -3.667000000
H    -5.871000000    -2.417000000    -4.508000000
H    -5.403000000    -2.977000000    -3.183000000
O    -3.638000000     6.103000000     0.439000000
H    -2.952000000     6.248000000     1.091000000
H    -3.542000000     5.183000000     0.191000000
O    -1.936000000     3.663000000    -4.908000000
H    -1.138000000     3.579000000    -4.386000000
H    -1.701000000     3.302000000    -5.763000000
O     3.825000000     5.034000000     3.526000000
H     3.111000000     4.546000000     3.116000000
H     3.446000000     5.376000000     4.336000000
O     1.885000000     6.353000000    -0.709000000
H     1.581000000     7.092000000    -0.181000000
H     2.544000000     5.924000000    -0.163000000
O    -4.023000000     4.466000000    -3.436000000
H    -4.569000000     4.834000000    -4.130000000
H    -3.214000000     4.207000000    -3.879000000
O    -2.636000000     3.577000000     1.720000000
H    -2.713000000     3.357000000     0.792000000
H    -2.989000000     2.814000000     2.177000000
O    -0.994000000    -2.292000000     3.196000000
H    -1.666000000    -2.283000000     3.877000000
H    -1.330000000    -1.704000000     2.520000000
O     4.519000000     2.314000000     4.285000000
H     3.654000000     2.136000000     3.917000000
H     5.011000000     1.505000000     4.145000000
O    -6.986000000    -2.337000000     0.380000000
H    -6.546000000    -1.946000000    -0.375000000
H    -7.668000000    -2.891000000    -0.001000000
O     0.412000000     3.670000000    -3.632000000
H    -0.062000000     3.783000000    -2.808000000
H     1.115000000     4.319000000    -3.595000000
O     2.711000000    -4.664000000    -3.907000000
H     2.901000000    -5.598000000    -3.821000000
H     2.758000000    -4.327000000    -3.012000000
O    -0.439000000     4.688000000    -1.312000000
H    -0.914000000     4.580000000    -0.487000000
H     0.433000000     4.984000000    -1.049000000
O     1.800000000     0.514000000     5.643000000
H     1.423000000    -0.364000000     5.697000000
H     1.927000000     0.663000000     4.706000000
O    -3.064000000     1.321000000     3.176000000
H    -2.246000000     1.015000000     3.569000000
H    -3.396000000     0.563000000     2.694000000
O    -3.245000000     3.529000000    -1.108000000
H    -3.688000000     2.712000000    -0.878000000
H    -3.586000000     3.751000000    -1.974000000
O     2.748000000    -3.185000000     3.687000000
H     2.527000000    -2.331000000     3.315000000
H     3.702000000    -3.170000000     3.769000000
O     7.799000000     0.242000000     2.323000000
H     8.289000000     0.818000000     2.910000000
H     7.109000000    -0.130000000     2.874000000
O    -3.591000000    -0.894000000     1.533000000
H    -4.138000000    -1.619000000     1.836000000
H    -2.984000000    -1.295000000     0.912000000
O     2.928000000    -0.461000000    -1.440000000
H     1.971000000    -0.469000000    -1.472000000
H     3.171000000     0.406000000    -1.766000000
O    -0.370000000     5.084000000     1.602000000
H     0.364000000     4.756000000     2.120000000
H    -1.083000000     4.471000000     1.782000000
O    -0.367000000     4.146000000     5.528000000
H    -1.087000000     4.733000000     5.760000000
H    -0.343000000     3.505000000     6.238000000
