161
-3057.92199
C    -1.099000000    -0.906000000    -0.407000000
H    -1.894000000    -1.505000000    -0.843000000
C     0.299000000    -1.085000000    -0.638000000
H     0.503000000    -1.822000000    -1.411000000
C     1.218000000    -0.230000000    -0.120000000
C     2.657000000    -0.446000000    -0.619000000
H     2.873000000    -1.515000000    -0.568000000
H     2.842000000    -0.140000000    -1.651000000
H     3.338000000     0.086000000     0.050000000
C     0.820000000     0.844000000     0.631000000
H     1.534000000     1.603000000     0.939000000
C    -0.549000000     1.002000000     0.901000000
H    -0.873000000     1.878000000     1.457000000
C    -1.515000000     0.184000000     0.391000000
C    -2.973000000     0.537000000     0.562000000
O    -3.284000000     1.242000000     1.552000000
O    -3.905000000     0.276000000    -0.224000000
O     1.205000000    -2.396000000    -4.132000000
H     1.114000000    -1.526000000    -3.742000000
H     1.026000000    -2.262000000    -5.062000000
O    -7.202000000     1.848000000     2.386000000
H    -6.366000000     2.305000000     2.484000000
H    -7.043000000     1.203000000     1.697000000
O     0.079000000     3.113000000    -2.827000000
H    -0.746000000     2.631000000    -2.874000000
H    -0.020000000     3.821000000    -3.463000000
O    -2.666000000    -5.287000000     2.307000000
H    -3.365000000    -5.669000000     1.775000000
H    -2.953000000    -4.389000000     2.470000000
O     0.473000000     5.238000000     1.757000000
H     0.678000000     5.795000000     2.507000000
H    -0.308000000     4.753000000     2.025000000
O    -7.886000000    -1.925000000    -1.266000000
H    -7.001000000    -1.649000000    -1.505000000
H    -8.384000000    -1.864000000    -2.081000000
O     4.904000000     1.244000000     2.445000000
H     4.401000000     1.579000000     1.702000000
H     4.252000000     1.108000000     3.132000000
O     3.552000000     0.679000000    -4.868000000
H     3.704000000     1.158000000    -5.682000000
H     2.936000000    -0.013000000    -5.109000000
O    -4.817000000     1.086000000    -4.409000000
H    -5.226000000     1.614000000    -3.723000000
H    -5.410000000     1.161000000    -5.156000000
O     1.271000000     5.850000000    -0.696000000
H     0.935000000     5.656000000     0.179000000
H     1.675000000     5.032000000    -0.984000000
O    -4.790000000     3.455000000     2.013000000
H    -4.300000000     2.721000000     1.642000000
H    -4.471000000     4.221000000     1.536000000
O    -3.842000000     3.286000000    -1.565000000
H    -3.539000000     3.547000000    -0.696000000
H    -4.703000000     2.898000000    -1.412000000
O    -3.585000000    -2.897000000     3.259000000
H    -3.776000000    -1.966000000     3.374000000
H    -2.883000000    -3.076000000     3.885000000
O     1.473000000    -5.613000000    -1.083000000
H     1.789000000    -5.986000000    -0.260000000
H     0.789000000    -6.217000000    -1.372000000
O    -5.829000000    -1.610000000    -4.860000000
H    -5.736000000    -1.143000000    -4.030000000
H    -4.963000000    -1.984000000    -5.022000000
O    -3.306000000     5.354000000     0.385000000
H    -3.946000000     6.039000000     0.579000000
H    -2.863000000     5.658000000    -0.408000000
O    -0.678000000    -3.742000000    -2.300000000
H    -0.244000000    -2.969000000    -2.661000000
H     0.039000000    -4.314000000    -2.028000000
O    -0.896000000    -0.802000000     5.189000000
H    -1.642000000    -0.240000000     5.394000000
H    -0.129000000    -0.256000000     5.361000000
O    -2.479000000     4.083000000    -3.879000000
H    -2.753000000     4.999000000    -3.932000000
H    -2.879000000     3.760000000    -3.072000000
O    -8.997000000    -0.338000000     0.495000000
H    -8.896000000    -1.110000000    -0.063000000
H    -8.133000000    -0.212000000     0.887000000
O     0.075000000     0.129000000    -3.899000000
H    -0.791000000     0.172000000    -3.494000000
H     0.548000000     0.876000000    -3.532000000
O    -5.070000000    -1.182000000    -1.943000000
H    -4.545000000    -0.721000000    -1.288000000
H    -4.673000000    -2.051000000    -2.000000000
O    -1.901000000     3.962000000     5.734000000
H    -1.861000000     4.604000000     5.025000000
H    -1.079000000     4.078000000     6.209000000
O     3.990000000    -2.755000000    -3.646000000
H     3.959000000    -3.021000000    -4.565000000
H     3.105000000    -2.443000000    -3.457000000
O    -6.066000000     5.011000000     3.846000000
H    -6.884000000     4.516000000     3.795000000
H    -5.408000000     4.427000000     3.470000000
O    -0.042000000    -4.655000000     1.925000000
H     0.129000000    -4.700000000     0.984000000
H    -0.943000000    -4.965000000     2.019000000
O     5.652000000    -4.688000000     0.392000000
H     6.447000000    -5.030000000    -0.016000000
H     5.015000000    -4.649000000    -0.321000000
O    -3.627000000    -3.743000000    -1.975000000
H    -3.899000000    -4.509000000    -1.469000000
H    -2.695000000    -3.883000000    -2.141000000
O     4.375000000    -1.694000000     3.768000000
H     5.176000000    -1.960000000     3.316000000
H     3.700000000    -1.711000000     3.090000000
O     6.624000000    -3.201000000    -3.239000000
H     6.944000000    -2.299000000    -3.254000000
H     5.704000000    -3.133000000    -3.495000000
O    -3.007000000     1.166000000     6.268000000
H    -2.558000000     1.627000000     5.560000000
H    -2.841000000     1.700000000     7.045000000
O     6.573000000     2.202000000    -3.736000000
H     7.113000000     2.987000000    -3.829000000
H     5.807000000     2.495000000    -3.243000000
O    -1.304000000     1.654000000     4.023000000
H    -1.125000000     1.083000000     3.276000000
H    -0.468000000     2.085000000     4.200000000
O     6.337000000    -2.402000000     2.075000000
H     7.268000000    -2.571000000     1.931000000
H     5.899000000    -3.192000000     1.759000000
O    -6.152000000     1.634000000    -1.848000000
H    -6.123000000     0.741000000    -1.504000000
H    -7.047000000     1.928000000    -1.675000000
O    -2.301000000     0.890000000    -2.769000000
H    -3.193000000     1.092000000    -3.051000000
H    -2.350000000     0.875000000    -1.813000000
O     2.029000000    -1.936000000     2.114000000
H     1.508000000    -2.412000000     1.467000000
H     1.463000000    -1.218000000     2.396000000
O    -6.194000000    -0.208000000     0.964000000
H    -5.937000000    -0.784000000     1.685000000
H    -5.403000000    -0.121000000     0.433000000
O    -3.960000000    -0.056000000     3.745000000
H    -3.728000000     0.415000000     2.945000000
H    -3.530000000     0.435000000     4.445000000
O     3.542000000     3.664000000     1.299000000
H     2.785000000     4.132000000     1.650000000
H     3.237000000     3.308000000     0.464000000
O     4.061000000    -4.867000000    -1.804000000
H     3.985000000    -4.112000000    -2.387000000
H     3.161000000    -5.052000000    -1.533000000
O     6.957000000    -0.117000000    -0.839000000
H     7.529000000     0.196000000    -0.138000000
H     6.314000000    -0.670000000    -0.394000000
O     4.044000000     3.054000000    -3.667000000
H     3.771000000     2.160000000    -3.874000000
H     4.319000000     3.421000000    -4.507000000
O     1.053000000     2.700000000     4.234000000
H     1.726000000     2.610000000     3.560000000
H     1.494000000     2.456000000     5.048000000
O     5.962000000     4.121000000     2.669000000
H     5.183000000     3.939000000     2.144000000
H     5.704000000     3.904000000     3.565000000
O     2.265000000     3.234000000    -1.194000000
H     2.914000000     3.267000000    -1.898000000
H     1.453000000     2.974000000    -1.629000000
O     3.209000000     0.967000000     4.677000000
H     3.533000000     0.068000000     4.634000000
H     3.382000000     1.241000000     5.578000000
O    -1.875000000     4.005000000     2.578000000
H    -2.605000000     4.087000000     1.965000000
H    -1.997000000     3.146000000     2.983000000
