161
-3053.35610
C    -1.380000000    -0.584000000    -0.056000000
H    -2.435000000    -0.836000000     0.012000000
C    -0.803000000     0.278000000    -0.946000000
H    -1.413000000     0.748000000    -1.713000000
C     0.512000000     0.642000000    -0.869000000
C     1.031000000     1.593000000    -1.910000000
H     1.930000000     1.226000000    -2.410000000
H     0.290000000     1.737000000    -2.699000000
H     1.296000000     2.535000000    -1.424000000
C     1.333000000     0.256000000     0.199000000
H     2.364000000     0.596000000     0.237000000
C     0.737000000    -0.632000000     1.062000000
H     1.328000000    -0.925000000     1.926000000
C    -0.563000000    -1.114000000     0.974000000
C    -1.250000000    -1.722000000     2.174000000
O    -0.571000000    -1.941000000     3.166000000
O    -2.408000000    -1.849000000     2.282000000
O     4.186000000     4.257000000    -4.141000000
H     3.591000000     4.635000000    -3.494000000
H     4.135000000     4.851000000    -4.890000000
O    -2.430000000     3.018000000     4.137000000
H    -2.017000000     3.448000000     4.885000000
H    -1.711000000     2.856000000     3.527000000
O     1.630000000     1.315000000     5.008000000
H     1.938000000     1.349000000     5.913000000
H     1.937000000     0.469000000     4.681000000
O    -5.097000000    -1.172000000    -2.410000000
H    -4.459000000    -1.745000000    -1.984000000
H    -5.614000000    -0.811000000    -1.689000000
O    -0.608000000     6.140000000    -2.124000000
H    -1.045000000     5.338000000    -2.411000000
H    -0.987000000     6.325000000    -1.264000000
O    -0.198000000    -3.184000000    -1.897000000
H     0.225000000    -3.449000000    -1.081000000
H    -0.990000000    -3.720000000    -1.941000000
O     0.061000000     1.942000000     3.031000000
H     0.296000000     1.153000000     2.543000000
H     0.528000000     1.858000000     3.862000000
O    -1.359000000    -4.078000000     5.811000000
H    -0.609000000    -3.514000000     5.999000000
H    -1.986000000    -3.503000000     5.371000000
O     5.278000000     1.340000000    -4.087000000
H     5.039000000     2.225000000    -3.810000000
H     4.470000000     0.974000000    -4.444000000
O     3.268000000    -2.806000000    -0.077000000
H     3.317000000    -2.356000000    -0.920000000
H     2.440000000    -3.286000000    -0.109000000
O    -2.704000000    -4.449000000    -1.821000000
H    -2.913000000    -5.345000000    -2.085000000
H    -3.230000000    -4.301000000    -1.036000000
O     1.213000000    -3.169000000     6.618000000
H     1.885000000    -3.742000000     6.986000000
H     1.264000000    -2.371000000     7.145000000
O     2.651000000     5.281000000    -2.324000000
H     1.697000000     5.281000000    -2.255000000
H     2.940000000     4.658000000    -1.657000000
O     4.262000000    -1.393000000     3.103000000
H     3.416000000    -1.475000000     3.543000000
H     4.251000000    -2.077000000     2.434000000
O    -3.156000000    -2.074000000     5.047000000
H    -2.675000000    -2.140000000     4.222000000
H    -3.112000000    -1.145000000     5.277000000
O     4.688000000     1.597000000     2.673000000
H     4.591000000     0.686000000     2.398000000
H     5.453000000     1.913000000     2.191000000
O     2.993000000     1.506000000    -5.898000000
H     2.924000000     1.438000000    -6.851000000
H     2.142000000     1.210000000    -5.575000000
O     6.228000000     2.079000000     0.645000000
H     6.973000000     1.872000000     0.081000000
H     5.794000000     2.812000000     0.208000000
O     2.094000000     4.781000000     0.882000000
H     1.226000000     4.394000000     1.004000000
H     2.657000000     4.301000000     1.489000000
O    -2.561000000    -3.334000000    -4.599000000
H    -2.415000000    -3.371000000    -3.654000000
H    -3.449000000    -3.670000000    -4.718000000
O    -3.659000000     1.931000000    -2.091000000
H    -4.372000000     2.569000000    -2.067000000
H    -3.987000000     1.225000000    -2.648000000
O     2.473000000     3.389000000     3.485000000
H     3.169000000     2.877000000     3.073000000
H     1.950000000     2.743000000     3.960000000
O    -0.760000000     3.683000000     0.869000000
H    -1.588000000     3.270000000     0.624000000
H    -0.376000000     3.087000000     1.513000000
O     0.137000000     1.434000000    -5.376000000
H     0.331000000     0.806000000    -4.680000000
H    -0.317000000     0.919000000    -6.043000000
O     0.669000000     3.843000000    -6.564000000
H     0.665000000     3.049000000    -6.030000000
H     1.584000000     4.124000000    -6.569000000
O     5.421000000    -2.248000000     5.461000000
H     5.144000000    -1.900000000     4.614000000
H     5.461000000    -3.195000000     5.330000000
O    -4.771000000    -5.231000000     2.467000000
H    -5.081000000    -4.709000000     3.207000000
H    -4.126000000    -4.672000000     2.034000000
O    -5.313000000    -3.726000000     4.685000000
H    -4.571000000    -3.145000000     4.853000000
H    -6.080000000    -3.156000000     4.731000000
O     1.851000000    -1.734000000     4.395000000
H     1.007000000    -1.870000000     3.966000000
H     1.802000000    -2.261000000     5.193000000
O    -4.061000000     0.293000000     2.068000000
H    -4.880000000    -0.179000000     1.915000000
H    -3.396000000    -0.393000000     2.123000000
O    -1.958000000    -4.964000000     1.335000000
H    -2.316000000    -4.099000000     1.139000000
H    -1.360000000    -4.816000000     2.067000000
O    -0.205000000    -0.858000000    -3.728000000
H     0.033000000    -1.255000000    -2.891000000
H     0.201000000    -1.423000000    -4.385000000
O    -2.719000000     0.539000000     5.122000000
H    -2.782000000     0.663000000     6.069000000
H    -2.499000000     1.406000000     4.781000000
O    -6.144000000     0.497000000     4.126000000
H    -5.288000000     0.139000000     3.889000000
H    -6.151000000     0.486000000     5.083000000
O    -2.285000000     3.670000000    -5.517000000
H    -2.488000000     3.457000000    -4.607000000
H    -1.329000000     3.702000000    -5.549000000
O     0.726000000    -4.239000000     2.287000000
H     0.422000000    -3.398000000     2.628000000
H     1.378000000    -4.534000000     2.923000000
O    -4.195000000    -2.838000000     0.565000000
H    -4.941000000    -2.252000000     0.433000000
H    -3.668000000    -2.406000000     1.237000000
O     1.295000000    -4.863000000    -0.299000000
H     1.015000000    -4.655000000     0.593000000
H     0.564000000    -5.356000000    -0.670000000
O     0.287000000    -6.078000000     4.626000000
H    -0.255000000    -5.353000000     4.940000000
H    -0.335000000    -6.685000000     4.225000000
O    -3.531000000     5.193000000    -3.420000000
H    -2.625000000     5.488000000    -3.506000000
H    -3.495000000     4.497000000    -2.764000000
O     3.681000000    -1.796000000    -2.650000000
H     3.986000000    -0.889000000    -2.654000000
H     3.700000000    -2.059000000    -3.570000000
O    -1.642000000     6.291000000     0.427000000
H    -1.327000000     6.692000000     1.237000000
H    -1.304000000     5.397000000     0.454000000
O     2.402000000     7.580000000     1.188000000
H     2.213000000     6.778000000     0.701000000
H     3.179000000     7.369000000     1.705000000
O    -3.326000000    -0.376000000    -5.472000000
H    -2.615000000    -0.277000000    -6.105000000
H    -3.099000000    -1.163000000    -4.978000000
O     2.234000000    -2.036000000    -5.656000000
H     1.936000000    -2.913000000    -5.417000000
H     3.184000000    -2.067000000    -5.547000000
O    -6.240000000    -0.972000000     0.249000000
H    -6.872000000    -1.649000000     0.492000000
H    -6.773000000    -0.196000000     0.080000000
O    -3.073000000     2.324000000     0.433000000
H    -3.386000000     2.102000000    -0.444000000
H    -3.504000000     1.692000000     1.008000000
O    -1.521000000     3.189000000    -2.731000000
H    -0.852000000     3.037000000    -2.063000000
H    -2.200000000     2.542000000    -2.542000000
