161
-3054.81020
C    -1.394000000    -0.371000000     0.286000000
H    -2.468000000    -0.496000000     0.399000000
C    -0.842000000    -0.096000000    -0.966000000
H    -1.474000000    -0.146000000    -1.849000000
C     0.458000000     0.342000000    -1.133000000
C     0.945000000     0.814000000    -2.443000000
H     2.011000000     0.609000000    -2.558000000
H     0.406000000     0.311000000    -3.249000000
H     0.822000000     1.894000000    -2.538000000
C     1.310000000     0.260000000    -0.011000000
H     2.321000000     0.648000000    -0.105000000
C     0.838000000    -0.106000000     1.240000000
H     1.549000000    -0.141000000     2.062000000
C    -0.545000000    -0.470000000     1.423000000
C    -1.134000000    -0.956000000     2.784000000
O    -0.454000000    -1.028000000     3.775000000
O    -2.346000000    -1.063000000     2.890000000
O     1.962000000     0.438000000    -6.209000000
H     1.083000000     0.461000000    -6.586000000
H     1.945000000    -0.306000000    -5.607000000
O    -7.354000000    -3.222000000     3.384000000
H    -7.855000000    -2.576000000     3.881000000
H    -6.447000000    -2.922000000     3.446000000
O     2.379000000     3.361000000     4.324000000
H     2.020000000     3.719000000     5.136000000
H     2.274000000     2.414000000     4.413000000
O    -1.395000000     3.675000000     4.195000000
H    -1.159000000     3.727000000     3.269000000
H    -1.400000000     2.738000000     4.388000000
O     6.835000000     0.890000000     1.090000000
H     6.564000000     1.793000000     0.924000000
H     6.015000000     0.400000000     1.143000000
O     3.668000000     2.277000000     1.173000000
H     3.837000000     2.898000000     1.882000000
H     3.864000000     2.767000000     0.374000000
O     3.473000000    -2.795000000     2.012000000
H     3.049000000    -2.714000000     2.866000000
H     3.871000000    -1.937000000     1.860000000
O    -4.302000000    -0.772000000    -1.805000000
H    -4.051000000    -1.685000000    -1.943000000
H    -4.909000000    -0.800000000    -1.065000000
O    -1.238000000    -5.135000000    -3.547000000
H    -0.934000000    -4.333000000    -3.122000000
H    -0.555000000    -5.779000000    -3.358000000
O    -0.769000000    -3.005000000    -1.318000000
H    -0.812000000    -2.223000000    -0.769000000
H    -0.307000000    -3.650000000    -0.782000000
O    -0.004000000     3.052000000     0.353000000
H     0.859000000     3.368000000     0.619000000
H     0.159000000     2.174000000     0.007000000
O     0.625000000     1.536000000     7.463000000
H    -0.186000000     1.335000000     7.928000000
H     0.571000000     2.475000000     7.282000000
O    -3.684000000    -3.047000000    -5.856000000
H    -3.355000000    -2.281000000    -5.386000000
H    -3.197000000    -3.051000000    -6.680000000
O     4.417000000    -0.267000000     1.483000000
H     3.869000000     0.498000000     1.312000000
H     4.466000000    -0.720000000     0.641000000
O    -3.300000000    -3.461000000    -1.764000000
H    -2.388000000    -3.248000000    -1.563000000
H    -3.248000000    -4.050000000    -2.516000000
O     5.477000000    -1.198000000    -3.538000000
H     4.740000000    -1.667000000    -3.929000000
H     5.896000000    -0.753000000    -4.275000000
O    -4.173000000    -0.531000000     4.961000000
H    -3.529000000    -1.067000000     4.498000000
H    -3.681000000     0.238000000     5.250000000
O     4.293000000     1.902000000    -3.496000000
H     5.229000000     1.884000000    -3.296000000
H     4.007000000     0.995000000    -3.389000000
O     4.801000000     1.607000000    -6.581000000
H     4.713000000     2.151000000    -5.799000000
H     3.989000000     1.102000000    -6.616000000
O    -2.571000000    -1.382000000     8.283000000
H    -1.924000000    -2.025000000     7.992000000
H    -3.415000000    -1.771000000     8.054000000
O     1.896000000    -1.809000000    -4.566000000
H     2.114000000    -2.699000000    -4.843000000
H     1.970000000    -1.831000000    -3.612000000
O    -3.386000000    -0.560000000    -4.706000000
H    -2.480000000    -0.262000000    -4.797000000
H    -3.699000000    -0.135000000    -3.908000000
O    -4.479000000     1.987000000    -2.359000000
H    -4.338000000     1.901000000    -3.302000000
H    -4.417000000     1.092000000    -2.025000000
O     3.242000000     3.381000000    -1.245000000
H     3.835000000     2.969000000    -1.873000000
H     2.427000000     3.505000000    -1.732000000
O     1.209000000     5.226000000    -2.705000000
H     0.258000000     5.206000000    -2.812000000
H     1.367000000     5.945000000    -2.093000000
O     1.518000000    -2.990000000     4.030000000
H     1.866000000    -2.841000000     4.909000000
H     0.732000000    -2.445000000     3.988000000
O    -4.318000000    -3.661000000     4.864000000
H    -4.900000000    -3.403000000     5.580000000
H    -3.525000000    -3.144000000     5.002000000
O    -5.603000000    -1.757000000     7.029000000
H    -5.238000000    -1.238000000     6.313000000
H    -6.179000000    -1.150000000     7.495000000
O    -5.009000000    -4.425000000     0.307000000
H    -4.422000000    -4.248000000    -0.428000000
H    -4.946000000    -3.645000000     0.857000000
O     1.578000000     0.683000000     5.030000000
H     0.917000000     0.089000000     4.675000000
H     1.387000000     0.720000000     5.967000000
O     4.732000000     0.518000000     4.274000000
H     5.057000000     0.293000000     3.402000000
H     3.789000000     0.628000000     4.157000000
O    -5.479000000     1.120000000     2.594000000
H    -4.675000000     0.784000000     2.990000000
H    -6.126000000     1.086000000     3.299000000
O    -4.525000000    -5.458000000     2.803000000
H    -4.840000000    -5.185000000     1.941000000
H    -4.555000000    -4.661000000     3.332000000
O    -1.794000000    -2.458000000     5.428000000
H    -1.327000000    -2.062000000     4.692000000
H    -1.150000000    -2.484000000     6.135000000
O     2.419000000    -3.087000000    -2.166000000
H     1.961000000    -2.919000000    -1.343000000
H     2.604000000    -4.026000000    -2.151000000
O    -1.261000000     1.250000000     5.278000000
H    -1.315000000     1.050000000     6.213000000
H    -1.294000000     0.396000000     4.848000000
O    -0.866000000    -0.431000000    -5.598000000
H    -0.725000000    -0.340000000    -6.540000000
H    -0.265000000    -1.127000000    -5.332000000
O     0.682000000    -3.921000000     0.988000000
H     1.584000000    -3.672000000     1.190000000
H     0.214000000    -3.820000000     1.817000000
O    -4.548000000     3.717000000     2.622000000
H    -3.615000000     3.819000000     2.437000000
H    -4.696000000     2.772000000     2.598000000
O    -4.673000000    -1.595000000     1.755000000
H    -5.137000000    -0.859000000     2.154000000
H    -3.751000000    -1.433000000     1.954000000
O     0.116000000    -2.474000000     7.548000000
H     0.908000000    -1.960000000     7.705000000
H     0.436000000    -3.359000000     7.373000000
O     4.550000000    -1.662000000    -0.788000000
H     5.128000000    -1.705000000    -1.550000000
H     3.960000000    -2.409000000    -0.892000000
O    -1.779000000     4.702000000     1.508000000
H    -1.901000000     5.493000000     0.984000000
H    -1.114000000     4.202000000     1.035000000
O    -2.444000000     3.032000000    -5.032000000
H    -2.970000000     3.427000000    -5.727000000
H    -2.437000000     3.688000000    -4.335000000
O    -6.282000000     0.612000000     0.035000000
H    -7.196000000     0.837000000     0.210000000
H    -5.858000000     0.649000000     0.892000000
O    -2.305000000     4.220000000    -2.152000000
H    -2.606000000     3.342000000    -1.915000000
H    -2.895000000     4.810000000    -1.683000000
O     0.146000000     2.689000000    -6.113000000
H     0.690000000     2.131000000    -5.557000000
H    -0.746000000     2.542000000    -5.798000000
O     2.240000000     4.905000000    -5.563000000
H     1.653000000     4.163000000    -5.707000000
H     2.053000000     5.189000000    -4.669000000
