161
-3056.33417
C    -0.917000000    -0.905000000     0.764000000
H    -1.543000000    -1.559000000     1.366000000
C    -1.330000000     0.330000000     0.201000000
H    -2.336000000     0.720000000     0.334000000
C    -0.378000000     1.087000000    -0.489000000
C    -0.692000000     2.479000000    -0.891000000
H    -1.771000000     2.598000000    -0.776000000
H    -0.195000000     3.276000000    -0.334000000
H    -0.493000000     2.440000000    -1.964000000
C     0.942000000     0.633000000    -0.613000000
H     1.722000000     1.223000000    -1.087000000
C     1.299000000    -0.647000000    -0.228000000
H     2.335000000    -0.957000000    -0.342000000
C     0.419000000    -1.437000000     0.543000000
C     0.850000000    -2.732000000     1.087000000
O     2.025000000    -3.011000000     1.000000000
O     0.059000000    -3.543000000     1.435000000
O     2.132000000     4.042000000    -4.376000000
H     1.363000000     4.470000000    -4.001000000
H     2.407000000     4.623000000    -5.086000000
O    -4.021000000    -2.059000000     1.492000000
H    -4.478000000    -1.231000000     1.348000000
H    -4.322000000    -2.352000000     2.353000000
O    -0.005000000     2.090000000     2.666000000
H    -0.248000000     1.235000000     3.021000000
H    -0.396000000     2.107000000     1.793000000
O     2.574000000     1.382000000     3.055000000
H     2.461000000     0.433000000     3.011000000
H     1.687000000     1.724000000     3.169000000
O    -1.218000000    -5.269000000    -1.553000000
H    -1.932000000    -5.884000000    -1.719000000
H    -1.620000000    -4.570000000    -1.037000000
O     1.045000000    -8.414000000     0.738000000
H     0.953000000    -8.697000000    -0.171000000
H     0.933000000    -7.463000000     0.706000000
O    -5.244000000    -2.881000000    -2.247000000
H    -4.876000000    -2.184000000    -1.704000000
H    -5.053000000    -2.611000000    -3.146000000
O     0.558000000    -5.959000000     0.224000000
H     0.041000000    -5.778000000    -0.561000000
H     0.376000000    -5.220000000     0.805000000
O     4.808000000    -6.607000000     0.560000000
H     5.271000000    -6.072000000     1.205000000
H     4.424000000    -5.973000000    -0.046000000
O    -0.215000000     5.377000000    -2.684000000
H    -0.811000000     6.125000000    -2.656000000
H     0.029000000     5.231000000    -1.770000000
O    -0.244000000    -0.233000000     4.242000000
H    -0.659000000    -0.048000000     5.085000000
H     0.577000000    -0.669000000     4.471000000
O     6.103000000    -4.972000000     2.530000000
H     5.882000000    -4.087000000     2.821000000
H     6.132000000    -5.489000000     3.335000000
O    -4.846000000     5.271000000    -1.653000000
H    -5.736000000     5.530000000    -1.414000000
H    -4.586000000     4.652000000    -0.971000000
O    -4.267000000    -1.051000000     4.452000000
H    -4.185000000    -1.983000000     4.247000000
H    -4.773000000    -1.029000000     5.264000000
O    -1.352000000     3.287000000    -4.241000000
H    -0.843000000     3.831000000    -3.640000000
H    -2.262000000     3.526000000    -4.067000000
O     1.544000000    -2.850000000    -3.098000000
H     2.178000000    -2.927000000    -3.810000000
H     2.039000000    -3.078000000    -2.311000000
O     2.330000000    -1.117000000     4.335000000
H     2.689000000    -1.588000000     3.582000000
H     2.951000000    -1.288000000     5.043000000
O     5.007000000     0.422000000    -0.355000000
H     5.328000000     0.266000000    -1.243000000
H     5.629000000     1.045000000     0.019000000
O    -2.136000000     4.683000000     2.611000000
H    -1.790000000     5.051000000     1.798000000
H    -1.827000000     5.278000000     3.294000000
O     5.939000000    -2.262000000     3.989000000
H     5.367000000    -2.784000000     4.551000000
H     5.348000000    -1.866000000     3.349000000
O     0.788000000     4.733000000     3.115000000
H     0.408000000     3.912000000     3.429000000
H     1.596000000     4.831000000     3.618000000
O    -0.122000000     4.616000000    -6.320000000
H    -0.808000000     5.263000000    -6.485000000
H    -0.468000000     4.075000000    -5.611000000
O    -4.527000000     2.805000000     0.051000000
H    -4.188000000     2.689000000     0.939000000
H    -4.787000000     1.926000000    -0.223000000
O    -0.810000000    -7.003000000     3.003000000
H    -0.493000000    -7.814000000     2.604000000
H    -1.501000000    -6.701000000     2.413000000
O     4.692000000     4.492000000    -1.703000000
H     3.841000000     4.530000000    -1.265000000
H     4.695000000     3.644000000    -2.147000000
O     6.238000000    -2.819000000    -1.264000000
H     6.891000000    -3.519000000    -1.236000000
H     6.749000000    -2.013000000    -1.197000000
O    -1.194000000    -1.915000000    -2.169000000
H    -0.943000000    -1.351000000    -1.437000000
H    -0.396000000    -2.400000000    -2.382000000
O    -3.045000000     0.017000000    -5.944000000
H    -2.318000000     0.195000000    -5.347000000
H    -2.690000000     0.201000000    -6.814000000
O     4.459000000     2.218000000    -3.858000000
H     3.754000000     2.847000000    -4.009000000
H     4.243000000     1.476000000    -4.423000000
O    -2.935000000    -6.759000000     1.129000000
H    -2.785000000    -5.823000000     0.998000000
H    -3.882000000    -6.866000000     1.032000000
O     3.321000000    -3.944000000     2.948000000
H     2.953000000    -3.609000000     2.131000000
H     2.569000000    -4.298000000     3.423000000
O    -1.705000000    -2.568000000     3.918000000
H    -0.951000000    -2.028000000     3.680000000
H    -2.261000000    -1.987000000     4.438000000
O     0.990000000    -4.983000000     3.705000000
H     0.627000000    -4.344000000     3.091000000
H     0.556000000    -5.806000000     3.478000000
O    -3.740000000    -0.097000000    -2.705000000
H    -2.917000000    -0.526000000    -2.469000000
H    -3.478000000     0.767000000    -3.023000000
O     0.233000000     1.429000000    -5.536000000
H     1.101000000     1.485000000    -5.137000000
H    -0.290000000     2.078000000    -5.065000000
O    -3.988000000     2.571000000     2.717000000
H    -3.273000000     3.122000000     2.398000000
H    -3.586000000     2.023000000     3.390000000
O    -4.090000000    -3.725000000     3.848000000
H    -3.159000000    -3.660000000     3.633000000
H    -4.285000000    -4.660000000     3.788000000
O    -2.440000000    -4.086000000     0.685000000
H    -3.162000000    -3.457000000     0.679000000
H    -1.724000000    -3.625000000     1.121000000
O     3.381000000    -3.910000000    -1.078000000
H     4.204000000    -3.434000000    -0.969000000
H     2.880000000    -3.705000000    -0.288000000
O     3.009000000    -7.598000000     3.454000000
H     2.768000000    -6.750000000     3.081000000
H     3.181000000    -8.154000000     2.694000000
O     2.844000000     3.540000000     0.450000000
H     2.691000000     2.621000000     0.229000000
H     2.004000000     3.846000000     0.793000000
O     4.201000000    -1.426000000     1.807000000
H     4.410000000    -0.694000000     1.227000000
H     3.453000000    -1.854000000     1.392000000
O    -2.687000000     1.287000000     4.994000000
H    -3.044000000     1.306000000     5.882000000
H    -3.165000000     0.580000000     4.559000000
O    -5.320000000     0.561000000     1.717000000
H    -5.099000000     1.420000000     2.078000000
H    -5.997000000     0.223000000     2.303000000
O     0.844000000     5.552000000     0.322000000
H     0.131000000     5.557000000     0.960000000
H     1.033000000     6.477000000     0.166000000
O    -4.050000000     4.087000000    -4.017000000
H    -4.263000000     4.297000000    -3.108000000
H    -4.077000000     4.929000000    -4.470000000
O    -6.075000000     0.269000000    -1.491000000
H    -6.553000000    -0.112000000    -2.228000000
H    -5.153000000     0.157000000    -1.721000000
O     2.981000000    -6.431000000    -2.741000000
H     2.930000000    -5.697000000    -2.129000000
H     2.126000000    -6.448000000    -3.169000000
