161
-3039.99139
C    -1.155000000    -0.932000000     0.261000000
H    -2.033000000    -1.488000000     0.580000000
C    -1.217000000     0.249000000    -0.496000000
H    -2.219000000     0.616000000    -0.704000000
C    -0.073000000     0.972000000    -0.830000000
C    -0.070000000     2.241000000    -1.551000000
H     0.184000000     3.007000000    -0.815000000
H     0.615000000     2.279000000    -2.401000000
H    -1.077000000     2.443000000    -1.919000000
C     1.150000000     0.515000000    -0.358000000
H     2.041000000     1.029000000    -0.708000000
C     1.208000000    -0.583000000     0.533000000
H     2.144000000    -0.935000000     0.957000000
C     0.061000000    -1.296000000     0.883000000
C     0.157000000    -2.374000000     1.912000000
O     1.160000000    -2.800000000     2.455000000
O    -0.877000000    -2.941000000     2.203000000
O     2.130000000     5.951000000    -1.747000000
H     1.878000000     6.867000000    -1.864000000
H     1.643000000     5.665000000    -0.974000000
O    -5.116000000     0.715000000     0.488000000
H    -5.579000000     1.549000000     0.554000000
H    -4.335000000     0.831000000     1.029000000
O    -1.443000000    -0.228000000     5.122000000
H    -1.170000000     0.256000000     4.343000000
H    -1.505000000     0.437000000     5.808000000
O    -0.893000000    -6.953000000     3.352000000
H    -0.389000000    -7.703000000     3.036000000
H    -0.920000000    -6.352000000     2.607000000
O     5.196000000     1.571000000     0.928000000
H     4.336000000     1.531000000     1.347000000
H     5.796000000     1.811000000     1.633000000
O    -0.503000000     0.921000000     2.958000000
H    -0.154000000     0.390000000     2.242000000
H    -0.269000000     1.820000000     2.726000000
O    -2.770000000    -2.828000000    -3.800000000
H    -2.206000000    -2.724000000    -3.033000000
H    -3.659000000    -2.751000000    -3.455000000
O    -2.634000000    -6.208000000     5.125000000
H    -3.382000000    -6.644000000     4.717000000
H    -1.898000000    -6.401000000     4.544000000
O    -1.557000000    -5.761000000    -1.867000000
H    -1.182000000    -5.551000000    -1.012000000
H    -1.866000000    -4.921000000    -2.206000000
O    -6.151000000     3.298000000     0.631000000
H    -6.493000000     3.612000000     1.468000000
H    -5.431000000     3.895000000     0.427000000
O    -1.261000000     3.395000000    -4.298000000
H    -0.753000000     3.704000000    -3.547000000
H    -0.603000000     3.090000000    -4.923000000
O     2.411000000    -0.487000000    -3.346000000
H     1.597000000    -0.448000000    -2.844000000
H     2.153000000    -0.855000000    -4.192000000
O     2.914000000    -1.796000000     4.465000000
H     2.965000000    -0.916000000     4.091000000
H     2.161000000    -2.197000000     4.031000000
O    -1.598000000     6.512000000    -1.437000000
H    -1.416000000     6.340000000    -2.361000000
H    -1.848000000     7.436000000    -1.409000000
O     2.228000000    -6.105000000     1.865000000
H     2.951000000    -6.370000000     2.434000000
H     2.026000000    -6.888000000     1.353000000
O    -4.462000000    -0.851000000    -1.679000000
H    -4.014000000    -1.615000000    -1.317000000
H    -4.773000000    -0.370000000    -0.913000000
O    -7.022000000     1.007000000    -1.554000000
H    -6.535000000     0.569000000    -0.856000000
H    -7.808000000     1.344000000    -1.124000000
O    -3.639000000     4.839000000    -0.088000000
H    -3.058000000     5.402000000    -0.599000000
H    -3.062000000     4.415000000     0.548000000
O    -3.060000000     0.469000000     2.488000000
H    -3.373000000    -0.212000000     3.084000000
H    -2.155000000     0.625000000     2.757000000
O     5.169000000    -0.352000000    -1.457000000
H     4.386000000    -0.282000000    -2.003000000
H     5.249000000     0.507000000    -1.042000000
O     2.950000000     1.770000000     2.612000000
H     2.333000000     2.488000000     2.474000000
H     2.957000000     1.639000000     3.560000000
O    -3.896000000     3.239000000    -4.575000000
H    -2.967000000     3.390000000    -4.397000000
H    -4.030000000     2.313000000    -4.374000000
O    -5.946000000     3.421000000    -2.645000000
H    -6.322000000     2.737000000    -2.091000000
H    -5.012000000     3.412000000    -2.436000000
O    -6.144000000    -2.096000000    -3.247000000
H    -5.959000000    -1.836000000    -4.150000000
H    -5.598000000    -1.517000000    -2.715000000
O     6.217000000     3.517000000    -2.330000000
H     5.509000000     2.874000000    -2.367000000
H     5.893000000     4.259000000    -2.841000000
O     0.508000000     5.651000000     0.369000000
H    -0.284000000     5.719000000    -0.165000000
H     0.279000000     6.082000000     1.192000000
O    -0.235000000    -5.109000000     0.825000000
H     0.659000000    -5.313000000     1.100000000
H    -0.470000000    -4.333000000     1.333000000
O     5.133000000    -3.564000000     4.266000000
H     4.812000000    -4.298000000     3.743000000
H     4.380000000    -2.979000000     4.346000000
O    -3.090000000    -4.173000000     2.716000000
H    -2.382000000    -3.589000000     2.446000000
H    -2.780000000    -4.563000000     3.534000000
O     1.373000000    -3.037000000     7.390000000
H     1.043000000    -3.811000000     7.848000000
H     1.198000000    -3.214000000     6.466000000
O     2.353000000     4.031000000    -3.834000000
H     2.311000000     4.493000000    -2.997000000
H     2.813000000     3.215000000    -3.635000000
O    -1.127000000    -4.783000000     6.744000000
H    -0.601000000    -4.141000000     6.268000000
H    -1.807000000    -5.044000000     6.123000000
O     0.886000000     1.468000000    -5.667000000
H     0.072000000     0.995000000    -5.840000000
H     1.529000000     1.056000000    -6.243000000
O    -0.645000000    -2.788000000     5.063000000
H    -0.852000000    -2.824000000     4.129000000
H    -0.932000000    -1.917000000     5.338000000
O     1.821000000    -4.595000000     4.653000000
H     1.343000000    -3.856000000     4.277000000
H     1.578000000    -5.341000000     4.104000000
O    -4.093000000    -3.142000000    -0.276000000
H    -3.698000000    -3.628000000     0.448000000
H    -5.036000000    -3.220000000    -0.130000000
O     2.994000000     3.639000000    -6.688000000
H     2.978000000     2.744000000    -6.349000000
H     2.899000000     4.191000000    -5.911000000
O    -4.415000000    -0.505000000     4.942000000
H    -3.476000000    -0.521000000     5.128000000
H    -4.706000000    -1.403000000     5.100000000
O    -0.559000000    -2.729000000    -2.215000000
H    -0.340000000    -2.217000000    -1.437000000
H     0.258000000    -3.170000000    -2.450000000
O    -4.431000000    -6.746000000     3.068000000
H    -5.320000000    -6.418000000     3.202000000
H    -3.924000000    -5.971000000     2.828000000
O     5.102000000    -1.867000000     0.880000000
H     5.014000000    -1.243000000     0.159000000
H     4.401000000    -2.502000000     0.734000000
O     3.099000000    -3.639000000     0.547000000
H     3.181000000    -4.557000000     0.805000000
H     2.538000000    -3.251000000     1.218000000
O     3.775000000     1.749000000    -3.455000000
H     3.115000000     1.056000000    -3.483000000
H     4.290000000     1.622000000    -4.252000000
O    -2.487000000     3.132000000     1.936000000
H    -2.606000000     2.196000000     2.091000000
H    -3.085000000     3.556000000     2.551000000
O     0.862000000     3.402000000     2.402000000
H     0.665000000     3.963000000     3.152000000
H     0.398000000     3.809000000     1.670000000
O    -1.125000000     6.212000000    -3.995000000
H    -0.559000000     6.935000000    -4.266000000
H    -0.928000000     5.509000000    -4.615000000
O    -3.898000000     0.510000000    -3.978000000
H    -2.950000000     0.435000000    -4.092000000
H    -4.078000000     0.044000000    -3.161000000
O     1.967000000    -3.861000000    -2.207000000
H     2.444000000    -3.498000000    -2.954000000
H     2.605000000    -3.867000000    -1.495000000
