161
-3059.79252
C    -1.329000000    -0.340000000    -0.452000000
H    -2.296000000    -0.725000000    -0.763000000
C    -0.240000000    -1.176000000    -0.396000000
H    -0.374000000    -2.220000000    -0.671000000
C     1.030000000    -0.746000000    -0.028000000
C     2.181000000    -1.739000000     0.030000000
H     2.695000000    -1.778000000    -0.932000000
H     2.838000000    -1.473000000     0.861000000
H     1.748000000    -2.738000000     0.118000000
C     1.138000000     0.631000000     0.353000000
H     2.068000000     1.087000000     0.683000000
C    -0.001000000     1.516000000     0.380000000
H     0.050000000     2.523000000     0.785000000
C    -1.205000000     1.015000000    -0.053000000
C    -2.457000000     1.850000000    -0.019000000
O    -2.382000000     2.739000000     0.752000000
O    -3.465000000     1.572000000    -0.641000000
O    -3.518000000     5.968000000     3.557000000
H    -3.857000000     5.289000000     2.974000000
H    -3.335000000     5.510000000     4.377000000
O    -3.196000000    -3.714000000    -3.583000000
H    -3.672000000    -3.051000000    -3.082000000
H    -2.379000000    -3.282000000    -3.835000000
O    -6.902000000     3.896000000     3.316000000
H    -5.999000000     4.077000000     3.056000000
H    -6.914000000     2.957000000     3.501000000
O    -3.004000000     6.006000000    -3.309000000
H    -3.314000000     5.424000000    -4.004000000
H    -3.141000000     5.509000000    -2.502000000
O     1.952000000     5.927000000     0.479000000
H     2.247000000     6.738000000     0.893000000
H     1.077000000     5.780000000     0.838000000
O     5.726000000     0.644000000    -0.795000000
H     5.739000000     0.508000000    -1.742000000
H     4.977000000     1.222000000    -0.646000000
O    -0.119000000    -5.155000000    -3.276000000
H    -0.020000000    -6.097000000    -3.136000000
H     0.672000000    -4.772000000    -2.895000000
O     6.741000000    -1.343000000    -4.085000000
H     6.174000000    -1.803000000    -3.466000000
H     6.364000000    -0.465000000    -4.147000000
O     2.499000000    -1.089000000    -4.622000000
H     2.355000000    -0.165000000    -4.418000000
H     1.849000000    -1.290000000    -5.295000000
O    -1.609000000    -2.827000000     3.920000000
H    -2.265000000    -3.119000000     3.288000000
H    -1.092000000    -2.175000000     3.446000000
O    -4.482000000     4.031000000     1.782000000
H    -3.656000000     3.546000000     1.790000000
H    -4.805000000     3.939000000     0.886000000
O    -4.325000000     4.289000000    -1.035000000
H    -3.846000000     3.535000000    -0.692000000
H    -4.890000000     3.924000000    -1.716000000
O     2.464000000    -4.706000000    -2.209000000
H     2.543000000    -4.585000000    -1.263000000
H     3.163000000    -5.320000000    -2.432000000
O    -5.438000000     3.055000000    -3.264000000
H    -4.947000000     2.998000000    -4.084000000
H    -5.625000000     2.144000000    -3.034000000
O    -0.932000000     4.843000000     1.592000000
H    -1.357000000     3.992000000     1.483000000
H    -1.521000000     5.463000000     1.162000000
O    -1.948000000    -4.555000000    -1.095000000
H    -1.602000000    -4.821000000    -1.946000000
H    -2.773000000    -5.033000000    -1.011000000
O    -2.573000000     0.173000000     4.803000000
H    -1.723000000    -0.092000000     5.155000000
H    -2.382000000     0.946000000     4.271000000
O    -6.145000000     0.971000000     2.901000000
H    -5.767000000     1.596000000     2.283000000
H    -5.613000000     0.181000000     2.800000000
O     1.450000000     1.203000000    -3.148000000
H     0.532000000     1.082000000    -3.388000000
H     1.452000000     1.184000000    -2.191000000
O    -5.006000000    -2.162000000    -2.036000000
H    -5.699000000    -1.634000000    -1.638000000
H    -5.059000000    -3.005000000    -1.586000000
O    -1.135000000    -1.823000000    -3.571000000
H    -1.284000000    -0.924000000    -3.866000000
H    -1.051000000    -1.752000000    -2.620000000
O     3.594000000    -3.607000000     2.860000000
H     2.999000000    -3.512000000     2.116000000
H     3.294000000    -2.954000000     3.492000000
O    -3.104000000    -3.455000000     1.522000000
H    -2.746000000    -3.766000000     0.690000000
H    -3.878000000    -3.998000000     1.667000000
O     5.651000000    -5.192000000     1.915000000
H     5.726000000    -4.513000000     1.244000000
H     4.948000000    -4.885000000     2.488000000
O     5.884000000    -2.461000000     3.698000000
H     5.977000000    -1.854000000     2.964000000
H     5.124000000    -2.998000000     3.471000000
O     5.802000000    -3.324000000    -0.410000000
H     5.867000000    -2.511000000     0.092000000
H     5.608000000    -3.039000000    -1.303000000
O    -2.845000000     4.043000000     5.554000000
H    -1.984000000     4.454000000     5.478000000
H    -2.785000000     3.259000000     5.008000000
O    -1.682000000     2.347000000     3.370000000
H    -1.904000000     2.335000000     2.439000000
H    -0.758000000     2.596000000     3.392000000
O     6.029000000    -0.861000000     1.355000000
H     5.846000000    -0.336000000     0.575000000
H     6.939000000    -1.137000000     1.249000000
O     1.311000000     2.427000000     3.866000000
H     1.577000000     1.509000000     3.829000000
H     1.232000000     2.616000000     4.801000000
O    -3.812000000     0.374000000    -3.085000000
H    -4.088000000    -0.533000000    -2.957000000
H    -3.905000000     0.777000000    -2.222000000
O    -1.279000000     0.806000000    -4.154000000
H    -2.224000000     0.906000000    -4.043000000
H    -1.007000000     1.598000000    -4.617000000
O     0.922000000     6.379000000    -1.915000000
H     0.415000000     7.157000000    -1.684000000
H     1.433000000     6.185000000    -1.129000000
O     3.913000000    -0.050000000     2.855000000
H     4.327000000     0.626000000     3.392000000
H     4.598000000    -0.322000000     2.244000000
O    -0.480000000    -5.904000000     1.021000000
H    -1.269000000    -5.851000000     1.561000000
H    -0.734000000    -5.509000000     0.187000000
O    -5.954000000     1.223000000    -0.324000000
H    -6.169000000     0.430000000    -0.815000000
H    -5.060000000     1.434000000    -0.590000000
O     5.495000000     3.952000000     1.697000000
H     5.648000000     3.255000000     2.335000000
H     4.544000000     3.976000000     1.593000000
O    -4.462000000    -1.162000000     3.105000000
H    -4.069000000    -1.281000000     2.240000000
H    -3.722000000    -0.962000000     3.678000000
O    -8.342000000     2.782000000    -1.098000000
H    -7.684000000     2.170000000    -0.769000000
H    -9.002000000     2.225000000    -1.511000000
O     3.708000000     2.613000000    -0.691000000
H     3.400000000     2.588000000     0.215000000
H     3.169000000     3.284000000    -1.109000000
O     4.597000000    -2.793000000    -3.014000000
H     4.124000000    -2.087000000    -3.454000000
H     4.044000000    -3.565000000    -3.138000000
O     2.842000000     3.449000000     1.816000000
H     2.389000000     3.062000000     2.565000000
H     2.476000000     4.330000000     1.743000000
O     2.502000000    -5.049000000     0.679000000
H     1.583000000    -5.253000000     0.852000000
H     2.953000000    -5.890000000     0.757000000
O     2.408000000     4.073000000    -2.994000000
H     2.309000000     3.140000000    -3.181000000
H     1.517000000     4.420000000    -3.029000000
O     1.670000000    -0.396000000     4.299000000
H     1.952000000    -0.751000000     5.142000000
H     2.484000000    -0.264000000     3.811000000
O    -2.910000000     6.380000000     0.331000000
H    -3.275000000     5.580000000    -0.045000000
H    -3.550000000     7.059000000     0.118000000
O    -0.565000000    -0.861000000     2.723000000
H     0.163000000    -0.652000000     3.307000000
H    -0.300000000    -0.508000000     1.873000000
O    -0.623000000     5.622000000     4.391000000
H    -0.088000000     6.411000000     4.478000000
H    -0.595000000     5.415000000     3.456000000
