161
-3046.21840
C    -0.705000000     1.286000000    -0.231000000
H    -1.116000000     2.274000000    -0.422000000
C     0.612000000     0.985000000    -0.570000000
H     1.253000000     1.737000000    -1.022000000
C     1.098000000    -0.311000000    -0.366000000
C     2.520000000    -0.590000000    -0.759000000
H     2.661000000    -0.090000000    -1.720000000
H     3.262000000    -0.192000000    -0.064000000
H     2.827000000    -1.634000000    -0.845000000
C     0.357000000    -1.278000000     0.324000000
H     0.805000000    -2.239000000     0.565000000
C    -1.014000000    -0.996000000     0.566000000
H    -1.629000000    -1.697000000     1.124000000
C    -1.473000000     0.266000000     0.305000000
C    -2.808000000     0.732000000     0.857000000
O    -3.582000000    -0.146000000     1.206000000
O    -3.075000000     1.886000000     1.044000000
O    -2.589000000    -4.207000000     0.693000000
H    -3.143000000    -4.728000000     0.113000000
H    -3.172000000    -3.531000000     1.038000000
O    -1.284000000    -6.330000000     3.696000000
H    -0.835000000    -5.561000000     3.344000000
H    -2.126000000    -5.996000000     4.003000000
O     2.508000000     4.455000000    -0.709000000
H     3.008000000     5.245000000    -0.913000000
H     1.905000000     4.725000000    -0.016000000
O     1.267000000     5.607000000    -4.277000000
H     1.872000000     4.964000000    -3.908000000
H     1.238000000     5.400000000    -5.211000000
O     5.098000000     1.114000000    -5.578000000
H     5.785000000     0.682000000    -6.085000000
H     4.731000000     0.420000000    -5.030000000
O     4.261000000     1.308000000     3.799000000
H     3.519000000     1.648000000     4.299000000
H     4.835000000     0.918000000     4.458000000
O     2.439000000    -6.958000000     2.386000000
H     2.771000000    -6.280000000     2.975000000
H     2.160000000    -6.480000000     1.605000000
O    -4.507000000     5.947000000    -0.433000000
H    -4.172000000     5.158000000    -0.007000000
H    -4.086000000     6.669000000     0.034000000
O    -4.738000000    -2.233000000     2.214000000
H    -4.471000000    -1.449000000     1.733000000
H    -5.240000000    -1.899000000     2.957000000
O    -7.110000000    -1.885000000    -1.558000000
H    -6.850000000    -2.572000000    -0.943000000
H    -6.393000000    -1.252000000    -1.527000000
O     4.054000000    -4.221000000    -0.273000000
H     4.281000000    -3.698000000     0.496000000
H     4.509000000    -3.792000000    -0.998000000
O     4.494000000     2.370000000    -1.568000000
H     3.868000000     3.037000000    -1.287000000
H     4.732000000     2.624000000    -2.459000000
O     4.604000000    -2.247000000     1.916000000
H     4.885000000    -1.570000000     1.300000000
H     4.914000000    -1.939000000     2.768000000
O    -5.181000000     3.354000000     3.693000000
H    -4.938000000     3.928000000     4.420000000
H    -5.394000000     3.953000000     2.977000000
O     6.531000000    -2.885000000    -3.335000000
H     7.142000000    -3.495000000    -3.749000000
H     6.907000000    -2.720000000    -2.470000000
O     1.357000000    -4.961000000     0.539000000
H     2.207000000    -5.004000000     0.100000000
H     0.792000000    -4.495000000    -0.078000000
O     3.613000000    -1.453000000     4.601000000
H     3.037000000    -0.714000000     4.406000000
H     3.833000000    -1.347000000     5.526000000
O    -2.817000000     4.548000000     1.745000000
H    -2.839000000     3.599000000     1.626000000
H    -2.830000000     4.670000000     2.695000000
O    -2.654000000     1.080000000     3.784000000
H    -2.673000000     0.161000000     4.050000000
H    -3.026000000     1.082000000     2.901000000
O    -5.820000000     1.246000000     2.351000000
H    -5.525000000     1.885000000     3.000000000
H    -5.015000000     0.940000000     1.934000000
O    -0.269000000     2.140000000     4.665000000
H    -0.565000000     2.868000000     5.212000000
H    -1.055000000     1.857000000     4.197000000
O    -3.020000000     1.098000000    -3.667000000
H    -3.508000000     1.816000000    -3.263000000
H    -2.488000000     1.521000000    -4.342000000
O     4.621000000    -1.161000000    -3.982000000
H     5.293000000    -1.798000000    -4.225000000
H     4.716000000    -1.062000000    -3.035000000
O     1.684000000    -4.171000000    -3.390000000
H     1.865000000    -3.300000000    -3.741000000
H     1.239000000    -4.007000000    -2.559000000
O    -1.242000000    -1.074000000    -2.884000000
H    -0.594000000    -0.531000000    -2.435000000
H    -2.022000000    -0.522000000    -2.936000000
O     4.840000000    -5.138000000    -3.865000000
H     5.109000000    -5.026000000    -4.777000000
H     4.960000000    -4.273000000    -3.472000000
O    -2.363000000    -7.160000000     0.570000000
H    -2.211000000    -6.227000000     0.715000000
H    -1.517000000    -7.499000000     0.278000000
O     1.573000000     2.929000000     2.507000000
H     1.474000000     3.324000000     1.641000000
H     1.073000000     3.500000000     3.090000000
O     2.107000000    -1.418000000    -4.127000000
H     3.063000000    -1.420000000    -4.086000000
H     1.872000000    -0.495000000    -4.214000000
O     2.711000000     3.498000000    -3.330000000
H     2.292000000     2.659000000    -3.522000000
H     2.452000000     3.695000000    -2.430000000
O    -6.037000000    -1.055000000     4.379000000
H    -5.326000000    -0.968000000     5.014000000
H    -6.193000000    -0.162000000     4.071000000
O     8.039000000    -0.001000000    -2.623000000
H     7.240000000    -0.468000000    -2.379000000
H     8.637000000    -0.150000000    -1.890000000
O    -5.132000000     2.964000000    -0.331000000
H    -4.372000000     2.714000000     0.195000000
H    -5.867000000     2.936000000     0.281000000
O    -0.562000000    -4.198000000     2.253000000
H    -1.392000000    -4.353000000     1.801000000
H     0.107000000    -4.458000000     1.620000000
O     0.864000000     1.243000000    -3.997000000
H     0.353000000     0.967000000    -4.758000000
H     0.324000000     1.912000000    -3.576000000
O    -4.021000000     3.583000000    -2.856000000
H    -4.498000000     3.369000000    -2.054000000
H    -3.784000000     4.505000000    -2.755000000
O    -5.253000000     0.049000000    -0.873000000
H    -5.246000000     0.990000000    -0.701000000
H    -4.651000000    -0.318000000    -0.225000000
O     0.204000000     4.850000000     0.700000000
H    -0.745000000     4.773000000     0.802000000
H     0.319000000     5.516000000     0.022000000
O    -0.090000000    -3.541000000    -1.381000000
H    -0.624000000    -3.559000000    -2.176000000
H    -0.208000000    -2.657000000    -1.034000000
O     5.668000000    -0.309000000    -1.307000000
H     6.123000000    -0.031000000    -0.512000000
H     5.035000000     0.389000000    -1.477000000
O     3.382000000    -4.518000000     3.507000000
H     3.274000000    -3.916000000     4.243000000
H     3.685000000    -3.965000000     2.787000000
O    -0.457000000    -1.792000000     3.816000000
H    -0.591000000    -2.365000000     3.061000000
H     0.252000000    -1.207000000     3.550000000
O     5.997000000     0.756000000     1.510000000
H     6.668000000     1.377000000     1.795000000
H     5.255000000     0.923000000     2.091000000
O    -0.121000000    -1.900000000    -6.063000000
H     0.229000000    -1.616000000    -5.219000000
H    -0.758000000    -1.225000000    -6.297000000
O    -8.643000000     0.326000000     2.173000000
H    -7.742000000     0.331000000     2.496000000
H    -9.004000000    -0.504000000     2.486000000
O    -0.807000000     3.581000000    -3.295000000
H    -0.462000000     4.362000000    -3.727000000
H    -1.464000000     3.915000000    -2.684000000
O     1.727000000     0.199000000     3.124000000
H     1.631000000     1.151000000     3.158000000
H     1.887000000     0.008000000     2.200000000
O    -3.113000000    -1.589000000     4.348000000
H    -2.171000000    -1.637000000     4.187000000
H    -3.511000000    -1.750000000     3.492000000
