161
-3050.93649
C    -1.426000000    -0.007000000     0.055000000
H    -2.500000000     0.160000000     0.033000000
C    -0.694000000     0.998000000    -0.614000000
H    -1.213000000     1.746000000    -1.208000000
C     0.674000000     0.857000000    -0.550000000
C     1.468000000     1.970000000    -1.088000000
H     2.131000000     2.373000000    -0.319000000
H     2.035000000     1.490000000    -1.888000000
H     0.812000000     2.753000000    -1.475000000
C     1.324000000    -0.279000000     0.000000000
H     2.410000000    -0.305000000     0.048000000
C     0.579000000    -1.264000000     0.663000000
H     1.080000000    -2.137000000     1.072000000
C    -0.818000000    -1.119000000     0.610000000
C    -1.715000000    -2.137000000     1.376000000
O    -1.357000000    -2.718000000     2.416000000
O    -2.785000000    -2.389000000     0.867000000
O     1.219000000     5.434000000    -3.437000000
H     2.020000000     5.090000000    -3.041000000
H     1.387000000     6.370000000    -3.542000000
O    -3.873000000     0.457000000    -3.587000000
H    -4.017000000     0.833000000    -4.456000000
H    -3.112000000    -0.114000000    -3.697000000
O     4.070000000     3.426000000    -3.605000000
H     4.605000000     3.190000000    -2.848000000
H     3.623000000     2.614000000    -3.845000000
O     1.594000000    -4.948000000     0.579000000
H     1.287000000    -4.376000000    -0.125000000
H     1.439000000    -5.834000000     0.252000000
O    -3.292000000    -2.308000000    -4.236000000
H    -2.408000000    -2.405000000    -4.590000000
H    -3.275000000    -2.794000000    -3.411000000
O     0.756000000     1.093000000     3.665000000
H     0.505000000     1.134000000     2.743000000
H     0.693000000     0.165000000     3.890000000
O     3.524000000    -4.951000000    -2.045000000
H     4.183000000    -4.266000000    -2.155000000
H     2.687000000    -4.495000000    -2.138000000
O    -3.034000000    -3.498000000    -1.766000000
H    -3.056000000    -2.847000000    -1.063000000
H    -2.461000000    -4.189000000    -1.434000000
O    -4.847000000    -3.844000000     5.780000000
H    -4.496000000    -3.084000000     5.317000000
H    -4.929000000    -4.518000000     5.105000000
O    -6.989000000    -3.791000000    -1.543000000
H    -6.714000000    -3.959000000    -0.642000000
H    -6.256000000    -3.314000000    -1.933000000
O    -5.115000000    -6.536000000    -0.145000000
H    -6.027000000    -6.561000000     0.148000000
H    -4.699000000    -5.889000000     0.424000000
O     0.792000000    -1.631000000     3.985000000
H     0.312000000    -2.230000000     3.413000000
H     0.361000000    -1.715000000     4.836000000
O    -4.786000000     2.095000000    -1.617000000
H    -4.404000000     2.932000000    -1.881000000
H    -4.456000000     1.467000000    -2.260000000
O     0.989000000    -3.950000000    -1.965000000
H     0.947000000    -3.399000000    -2.746000000
H     0.115000000    -4.335000000    -1.896000000
O    -3.984000000     4.038000000    -3.067000000
H    -3.602000000     3.943000000    -3.940000000
H    -3.454000000     4.714000000    -2.646000000
O    -3.300000000     4.518000000     2.326000000
H    -2.458000000     4.297000000     1.928000000
H    -3.939000000     4.379000000     1.627000000
O    -5.167000000     3.507000000     0.571000000
H    -5.291000000     2.845000000     1.251000000
H    -5.363000000     3.049000000    -0.247000000
O     4.042000000    -1.915000000    -4.567000000
H     4.265000000    -2.086000000    -3.652000000
H     4.855000000    -2.080000000    -5.046000000
O     5.135000000    -2.513000000    -2.013000000
H     5.993000000    -2.847000000    -2.274000000
H     5.219000000    -2.345000000    -1.074000000
O     1.198000000    -1.888000000    -4.044000000
H     2.133000000    -2.002000000    -4.214000000
H     0.787000000    -1.963000000    -4.906000000
O     4.943000000     0.638000000     1.942000000
H     4.275000000     1.107000000     2.443000000
H     5.242000000     1.272000000     1.290000000
O     1.743000000     4.527000000    -6.079000000
H     1.311000000     4.117000000    -5.329000000
H     1.436000000     5.433000000    -6.066000000
O    -1.542000000    -5.311000000    -0.514000000
H    -1.202000000    -6.200000000    -0.405000000
H    -2.077000000    -5.163000000     0.267000000
O     4.354000000    -2.314000000     4.438000000
H     3.754000000    -1.678000000     4.826000000
H     3.847000000    -2.725000000     3.737000000
O    -4.617000000     0.947000000     2.730000000
H    -4.852000000     1.612000000     3.378000000
H    -3.842000000     0.520000000     3.096000000
O    -0.982000000    -1.692000000     6.579000000
H    -1.639000000    -0.998000000     6.524000000
H    -1.460000000    -2.448000000     6.919000000
O     0.116000000     1.434000000    -4.919000000
H     1.002000000     1.419000000    -4.558000000
H    -0.451000000     1.550000000    -4.156000000
O    -3.239000000    -2.073000000     4.288000000
H    -2.614000000    -2.375000000     3.629000000
H    -2.866000000    -1.254000000     4.614000000
O    -5.163000000    -1.056000000     0.823000000
H    -4.327000000    -1.500000000     0.680000000
H    -4.930000000    -0.250000000     1.284000000
O    -3.670000000    -4.880000000     1.566000000
H    -3.186000000    -4.061000000     1.455000000
H    -3.424000000    -5.187000000     2.439000000
O    -6.172000000    -3.642000000     1.019000000
H    -5.290000000    -3.945000000     1.233000000
H    -6.121000000    -2.689000000     1.086000000
O    -2.790000000     0.373000000     5.104000000
H    -2.182000000     1.109000000     5.169000000
H    -3.322000000     0.431000000     5.898000000
O    -1.432000000     4.926000000    -4.204000000
H    -1.365000000     4.893000000    -5.158000000
H    -0.528000000     5.017000000    -3.904000000
O    -6.481000000    -0.073000000    -1.314000000
H    -5.986000000    -0.596000000    -0.683000000
H    -5.917000000     0.677000000    -1.499000000
O    -1.032000000    -0.824000000    -2.928000000
H    -0.272000000    -1.322000000    -3.229000000
H    -1.028000000    -0.931000000    -1.977000000
O    -4.236000000    -5.840000000    -2.714000000
H    -4.670000000    -6.010000000    -1.878000000
H    -3.793000000    -5.002000000    -2.587000000
O     5.107000000    -2.456000000     0.856000000
H     4.317000000    -2.894000000     1.172000000
H     5.028000000    -1.558000000     1.177000000
O     5.726000000     3.166000000    -1.690000000
H     5.875000000     2.646000000    -0.901000000
H     6.520000000     3.692000000    -1.784000000
O     2.852000000    -3.562000000     2.201000000
H     2.543000000    -3.977000000     3.007000000
H     2.392000000    -4.027000000     1.502000000
O     0.650000000     4.629000000     3.358000000
H     0.084000000     4.311000000     2.654000000
H     0.593000000     5.582000000     3.299000000
O    -1.772000000    -6.900000000     5.202000000
H    -1.238000000    -7.685000000     5.080000000
H    -1.622000000    -6.384000000     4.410000000
O     1.699000000    -4.515000000     4.479000000
H     0.808000000    -4.807000000     4.675000000
H     2.111000000    -4.411000000     5.337000000
O     3.256000000     2.146000000     3.358000000
H     2.357000000     1.841000000     3.483000000
H     3.270000000     3.017000000     3.756000000
O     3.181000000     1.036000000    -4.582000000
H     3.420000000     0.183000000    -4.221000000
H     3.730000000     1.128000000    -5.362000000
O    -2.684000000     5.386000000    -0.909000000
H    -3.396000000     4.977000000    -0.417000000
H    -2.650000000     6.283000000    -0.579000000
O     4.022000000     3.911000000     0.873000000
H     3.237000000     3.765000000     1.401000000
H     3.692000000     4.264000000     0.047000000
O    -1.224000000    -5.247000000     3.062000000
H    -0.703000000    -5.548000000     2.318000000
H    -1.213000000    -4.293000000     2.993000000
O    -0.820000000     4.205000000     1.266000000
H    -0.443000000     3.531000000     0.700000000
H    -0.789000000     5.004000000     0.740000000
