161
-3074.97764
C     0.239000000     1.266000000    -0.683000000
H     0.495000000     2.144000000    -1.271000000
C     1.051000000     0.174000000    -0.802000000
H     1.974000000     0.240000000    -1.374000000
C     0.795000000    -0.946000000    -0.048000000
C     1.618000000    -2.258000000    -0.121000000
H     2.511000000    -2.054000000     0.473000000
H     1.059000000    -3.109000000     0.274000000
H     2.081000000    -2.444000000    -1.092000000
C    -0.321000000    -0.926000000     0.825000000
H    -0.612000000    -1.796000000     1.409000000
C    -1.123000000     0.213000000     0.982000000
H    -2.014000000     0.200000000     1.605000000
C    -0.969000000     1.271000000     0.099000000
C    -1.997000000     2.389000000    -0.079000000
O    -2.925000000     2.429000000     0.721000000
O    -1.869000000     3.208000000    -0.915000000
O     0.085000000     1.604000000    -6.517000000
H     0.327000000     1.521000000    -5.595000000
H    -0.791000000     1.221000000    -6.571000000
O     3.705000000     1.192000000    -2.720000000
H     3.671000000     0.919000000    -3.637000000
H     3.325000000     2.070000000    -2.717000000
O    -3.955000000    -2.566000000     3.540000000
H    -3.687000000    -2.716000000     2.633000000
H    -4.431000000    -3.360000000     3.783000000
O     3.219000000    -3.343000000     3.801000000
H     3.743000000    -3.658000000     4.537000000
H     2.486000000    -2.881000000     4.208000000
O    -0.034000000    -4.837000000    -1.303000000
H    -0.544000000    -4.748000000    -2.108000000
H     0.283000000    -3.952000000    -1.121000000
O     2.544000000     4.359000000    -5.314000000
H     2.738000000     4.259000000    -4.382000000
H     3.403000000     4.364000000    -5.738000000
O    -4.087000000     0.512000000    -0.758000000
H    -3.576000000     1.285000000    -0.516000000
H    -4.940000000     0.650000000    -0.346000000
O    -6.798000000     3.737000000    -2.195000000
H    -5.986000000     3.232000000    -2.241000000
H    -7.212000000     3.603000000    -3.047000000
O     0.133000000    -1.848000000    -3.117000000
H     0.611000000    -1.650000000    -2.312000000
H    -0.790000000    -1.794000000    -2.867000000
O     5.789000000    -3.687000000     1.282000000
H     6.420000000    -3.435000000     0.608000000
H     5.189000000    -4.285000000     0.836000000
O    -2.045000000     4.331000000     2.706000000
H    -2.239000000     3.669000000     2.043000000
H    -2.904000000     4.635000000     2.999000000
O    -1.484000000    -1.447000000     3.803000000
H    -2.283000000    -1.971000000     3.858000000
H    -1.732000000    -0.593000000     4.157000000
O    -5.838000000     3.054000000     4.485000000
H    -5.433000000     2.318000000     4.027000000
H    -5.288000000     3.806000000     4.264000000
O     4.277000000    -5.360000000    -0.195000000
H     4.384000000    -6.304000000    -0.309000000
H     3.559000000    -5.275000000     0.433000000
O     4.228000000    -1.490000000    -2.873000000
H     4.333000000    -1.027000000    -2.042000000
H     4.675000000    -0.937000000    -3.513000000
O    -4.044000000     3.071000000    -2.408000000
H    -3.375000000     3.260000000    -1.750000000
H    -3.580000000     2.580000000    -3.086000000
O    -2.478000000     7.688000000     1.250000000
H    -1.890000000     7.423000000     1.956000000
H    -2.813000000     6.865000000     0.895000000
O    -7.213000000     4.796000000     2.415000000
H    -6.685000000     4.166000000     1.924000000
H    -7.663000000     4.269000000     3.075000000
O    -5.626000000    -0.510000000     3.616000000
H    -5.100000000     0.274000000     3.457000000
H    -4.986000000    -1.217000000     3.694000000
O    -3.471000000     5.334000000    -4.140000000
H    -3.574000000     4.722000000    -3.411000000
H    -4.020000000     6.082000000    -3.903000000
O     1.799000000     1.070000000     2.370000000
H     1.699000000     0.226000000     2.810000000
H     1.157000000     1.047000000     1.660000000
O     4.653000000    -1.412000000     2.257000000
H     5.178000000    -1.965000000     1.678000000
H     4.102000000    -2.027000000     2.740000000
O     2.381000000    -4.842000000     1.680000000
H     2.744000000    -4.235000000     2.325000000
H     1.432000000    -4.760000000     1.781000000
O    -2.414000000    -0.732000000    -2.507000000
H    -2.716000000    -0.372000000    -1.674000000
H    -2.188000000     0.035000000    -3.033000000
O     3.291000000     0.110000000    -5.380000000
H     3.732000000    -0.633000000    -5.790000000
H     3.346000000     0.810000000    -6.031000000
O     0.194000000     4.924000000     0.824000000
H    -0.444000000     4.637000000     0.170000000
H    -0.334000000     5.154000000     1.589000000
O     3.964000000    -4.163000000    -2.887000000
H     4.024000000    -4.570000000    -2.023000000
H     3.912000000    -3.224000000    -2.707000000
O     2.367000000    -3.230000000    -5.625000000
H     3.174000000    -2.761000000    -5.412000000
H     2.149000000    -3.708000000    -4.825000000
O     0.391000000    -3.883000000     5.392000000
H     0.263000000    -4.207000000     4.501000000
H     0.424000000    -2.931000000     5.299000000
O    -5.477000000    -2.072000000    -0.692000000
H    -6.095000000    -1.570000000    -0.160000000
H    -4.957000000    -1.409000000    -1.145000000
O    -0.239000000    -4.403000000     2.511000000
H    -0.662000000    -3.573000000     2.291000000
H    -0.869000000    -5.071000000     2.242000000
O    -3.734000000    -3.580000000     1.027000000
H    -4.383000000    -3.127000000     0.488000000
H    -3.650000000    -4.444000000     0.625000000
O     2.936000000     4.379000000     0.307000000
H     3.101000000     3.453000000     0.485000000
H     2.024000000     4.514000000     0.566000000
O     0.990000000     6.128000000    -1.776000000
H     0.264000000     6.705000000    -2.013000000
H     1.239000000     6.407000000    -0.894000000
O    -1.566000000     1.525000000    -3.428000000
H    -1.475000000     2.163000000    -2.720000000
H    -0.677000000     1.200000000    -3.573000000
O    -3.209000000     5.431000000    -0.106000000
H    -2.698000000     4.637000000    -0.267000000
H    -3.933000000     5.380000000    -0.730000000
O    -0.404000000     3.790000000    -3.318000000
H    -0.416000000     4.480000000    -2.655000000
H    -0.817000000     4.188000000    -4.085000000
O    -5.644000000     2.678000000     0.990000000
H    -5.374000000     2.033000000     1.643000000
H    -4.840000000     3.149000000     0.771000000
O    -4.502000000     5.199000000     3.215000000
H    -5.124000000     5.362000000     2.506000000
H    -4.632000000     5.928000000     3.821000000
O     1.438000000    -7.297000000    -1.129000000
H     1.138000000    -7.331000000    -2.037000000
H     1.155000000    -6.438000000    -0.815000000
O     4.364000000     1.241000000     1.958000000
H     4.541000000     0.312000000     2.101000000
H     3.425000000     1.334000000     2.117000000
O     3.499000000    -6.468000000    -3.912000000
H     4.368000000    -6.869000000    -3.894000000
H     3.644000000    -5.568000000    -3.622000000
O    -1.896000000     1.047000000     4.696000000
H    -1.195000000     1.509000000     5.155000000
H    -2.683000000     1.235000000     5.209000000
O     6.581000000     2.192000000    -1.994000000
H     6.332000000     3.110000000    -1.887000000
H     5.755000000     1.738000000    -2.164000000
O     0.938000000     0.388000000    -4.183000000
H     0.628000000    -0.436000000    -3.808000000
H     1.785000000     0.171000000    -4.572000000
O     2.491000000     3.507000000    -2.409000000
H     2.428000000     4.145000000    -1.698000000
H     1.582000000     3.325000000    -2.649000000
O     1.148000000    -1.361000000     3.833000000
H     1.163000000    -0.763000000     4.579000000
H     0.224000000    -1.414000000     3.587000000
O    -4.029000000     1.600000000     2.946000000
H    -3.239000000     1.354000000     3.428000000
H    -3.704000000     2.063000000     2.174000000
