161
-3046.91344
C    -0.905000000     0.576000000    -0.997000000
H    -1.452000000     1.036000000    -1.816000000
C     0.387000000     0.146000000    -1.202000000
H     0.856000000     0.346000000    -2.162000000
C     1.120000000    -0.416000000    -0.181000000
C     2.548000000    -0.817000000    -0.452000000
H     3.204000000     0.056000000    -0.448000000
H     2.917000000    -1.478000000     0.335000000
H     2.666000000    -1.184000000    -1.474000000
C     0.556000000    -0.562000000     1.062000000
H     1.107000000    -1.101000000     1.827000000
C    -0.737000000    -0.081000000     1.328000000
H    -1.098000000    -0.246000000     2.340000000
C    -1.481000000     0.387000000     0.270000000
C    -2.864000000     0.932000000     0.461000000
O    -3.429000000     0.862000000     1.526000000
O    -3.390000000     1.539000000    -0.423000000
O     5.568000000     1.367000000    -1.609000000
H     5.086000000     2.189000000    -1.521000000
H     5.016000000     0.718000000    -1.173000000
O    -0.360000000     3.446000000    -3.693000000
H    -0.188000000     3.888000000    -2.861000000
H    -1.007000000     2.775000000    -3.478000000
O    -7.042000000     0.067000000    -1.798000000
H    -7.970000000     0.185000000    -1.595000000
H    -6.646000000    -0.195000000    -0.967000000
O     2.764000000     4.984000000     0.492000000
H     3.720000000     4.924000000     0.497000000
H     2.466000000     4.077000000     0.555000000
O    -1.243000000    -4.023000000     0.424000000
H    -1.100000000    -4.847000000    -0.043000000
H    -0.473000000    -3.494000000     0.217000000
O    -3.561000000    -2.962000000     0.397000000
H    -3.626000000    -3.107000000    -0.547000000
H    -2.683000000    -3.268000000     0.626000000
O     0.977000000    -3.287000000    -0.610000000
H     1.424000000    -2.541000000    -0.212000000
H     1.643000000    -3.973000000    -0.649000000
O    -5.579000000    -0.766000000     0.668000000
H    -4.969000000    -0.159000000     1.087000000
H    -5.124000000    -1.608000000     0.677000000
O    -4.305000000    -0.292000000    -5.326000000
H    -4.155000000    -0.652000000    -4.452000000
H    -5.160000000     0.134000000    -5.266000000
O     3.180000000    -4.655000000    -1.225000000
H     2.874000000    -5.481000000    -1.601000000
H     3.819000000    -4.327000000    -1.858000000
O    -4.071000000     4.312000000    -1.621000000
H    -3.280000000     3.869000000    -1.313000000
H    -4.642000000     3.605000000    -1.920000000
O     0.650000000    -4.349000000     3.056000000
H    -0.086000000    -4.279000000     2.448000000
H     0.939000000    -5.258000000     2.980000000
O    -2.558000000     1.676000000    -4.259000000
H    -3.017000000     1.244000000    -3.538000000
H    -3.127000000     1.546000000    -5.018000000
O    -4.103000000     3.938000000     5.534000000
H    -4.404000000     3.541000000     4.717000000
H    -4.870000000     3.920000000     6.106000000
O    -0.757000000    -0.396000000     6.390000000
H    -0.589000000    -1.275000000     6.051000000
H    -0.332000000    -0.384000000     7.247000000
O     5.067000000    -3.565000000     2.245000000
H     4.466000000    -4.222000000     1.894000000
H     4.578000000    -3.147000000     2.953000000
O     5.910000000    -0.758000000    -3.594000000
H     5.954000000    -0.310000000    -2.750000000
H     6.808000000    -1.044000000    -3.761000000
O     3.739000000    -5.983000000     1.085000000
H     3.553000000    -5.510000000     0.274000000
H     2.997000000    -6.578000000     1.191000000
O    -4.049000000    -0.441000000    -2.442000000
H    -4.717000000    -1.106000000    -2.273000000
H    -4.099000000     0.146000000    -1.688000000
O    -3.425000000    -0.571000000     3.901000000
H    -2.579000000    -0.238000000     4.200000000
H    -3.546000000    -0.177000000     3.036000000
O     1.737000000     3.533000000     3.850000000
H     2.676000000     3.477000000     4.024000000
H     1.631000000     3.154000000     2.977000000
O     4.719000000     1.083000000     1.977000000
H     5.013000000     0.905000000     2.870000000
H     5.271000000     0.526000000     1.427000000
O     5.704000000    -0.978000000     0.344000000
H     6.525000000    -1.449000000     0.203000000
H     5.129000000    -1.619000000     0.762000000
O     2.982000000    -2.875000000     4.107000000
H     2.720000000    -2.021000000     4.448000000
H     2.219000000    -3.183000000     3.618000000
O     2.044000000     0.105000000    -4.924000000
H     1.195000000    -0.334000000    -4.865000000
H     2.675000000    -0.557000000    -4.641000000
O    -1.599000000     3.834000000    -0.668000000
H    -1.927000000     3.124000000    -0.115000000
H    -1.614000000     4.605000000    -0.101000000
O     5.503000000    -4.121000000    -2.699000000
H     5.169000000    -3.655000000    -3.466000000
H     6.121000000    -3.510000000    -2.298000000
O    -6.497000000     3.046000000    -2.633000000
H    -6.593000000     2.097000000    -2.712000000
H    -5.973000000     3.298000000    -3.394000000
O     1.663000000    -0.588000000     5.181000000
H     0.954000000    -0.384000000     5.790000000
H     2.205000000     0.202000000     5.171000000
O    -4.171000000    -3.120000000     3.117000000
H    -4.256000000    -2.856000000     2.200000000
H    -3.928000000    -2.316000000     3.576000000
O     2.141000000     2.269000000     1.314000000
H     1.713000000     1.464000000     1.024000000
H     3.009000000     1.988000000     1.605000000
O     0.923000000     4.869000000    -1.537000000
H     0.542000000     4.308000000    -0.862000000
H     1.730000000     5.202000000    -1.144000000
O     0.776000000    -3.662000000    -3.295000000
H     0.605000000    -3.681000000    -2.354000000
H     1.670000000    -3.993000000    -3.383000000
O     3.925000000    -1.940000000    -4.881000000
H     4.461000000    -1.327000000    -4.378000000
H     4.295000000    -1.914000000    -5.764000000
O    -3.009000000     7.027000000    -1.527000000
H    -2.150000000     7.006000000    -1.950000000
H    -3.156000000     6.125000000    -1.241000000
O    -5.811000000     2.454000000     1.202000000
H    -5.102000000     1.885000000     0.902000000
H    -5.421000000     3.327000000     1.232000000
O    -6.085000000     2.980000000     4.038000000
H    -6.242000000     2.072000000     4.298000000
H    -5.781000000     2.921000000     3.132000000
O    -2.981000000     3.108000000     3.084000000
H    -3.146000000     2.423000000     2.436000000
H    -2.356000000     2.715000000     3.693000000
O    -0.492000000    -1.545000000    -4.710000000
H    -0.194000000    -2.403000000    -4.407000000
H    -0.942000000    -1.167000000    -3.954000000
O    -4.448000000     5.073000000     0.989000000
H    -4.299000000     4.624000000     0.156000000
H    -4.988000000     5.829000000     0.761000000
O     5.335000000     3.897000000     0.709000000
H     6.265000000     4.089000000     0.584000000
H     5.313000000     2.973000000     0.957000000
O     8.179000000     1.411000000    -2.661000000
H     7.364000000     1.385000000    -2.160000000
H     8.233000000     2.310000000    -2.983000000
O     2.135000000     2.843000000    -4.210000000
H     2.029000000     1.997000000    -4.646000000
H     1.247000000     3.092000000    -3.952000000
O    -7.789000000     0.485000000     2.957000000
H    -7.161000000    -0.169000000     2.649000000
H    -8.646000000     0.094000000     2.787000000
O    -2.535000000     4.751000000    -5.559000000
H    -1.991000000     4.614000000    -4.783000000
H    -1.909000000     4.862000000    -6.274000000
O     4.325000000     3.742000000    -2.777000000
H     4.960000000     3.973000000    -3.455000000
H     3.587000000     3.367000000    -3.257000000
O    -0.051000000    -3.072000000     5.600000000
H    -0.842000000    -3.433000000     5.198000000
H     0.655000000    -3.317000000     5.002000000
O    -0.646000000     1.889000000     4.578000000
H    -0.642000000     1.201000000     5.243000000
H     0.230000000     2.274000000     4.627000000
