161
-3037.78702
C    -0.834000000     1.252000000    -0.191000000
H    -1.282000000     2.216000000    -0.420000000
C     0.544000000     1.127000000    -0.376000000
H     1.059000000     2.050000000    -0.628000000
C     1.223000000    -0.081000000    -0.141000000
C     2.631000000    -0.224000000    -0.507000000
H     3.185000000     0.683000000    -0.257000000
H     3.118000000    -1.043000000     0.027000000
H     2.743000000    -0.418000000    -1.576000000
C     0.539000000    -1.215000000     0.307000000
H     1.075000000    -2.158000000     0.375000000
C    -0.834000000    -1.098000000     0.606000000
H    -1.346000000    -1.950000000     1.047000000
C    -1.528000000     0.117000000     0.278000000
C    -3.013000000     0.184000000     0.459000000
O    -3.730000000    -0.667000000     0.946000000
O    -3.548000000     1.226000000     0.052000000
O    -4.264000000    -3.787000000    -1.667000000
H    -4.605000000    -4.016000000    -2.532000000
H    -4.789000000    -3.035000000    -1.394000000
O     1.602000000     1.297000000    -3.740000000
H     1.351000000     2.165000000    -4.056000000
H     2.284000000     1.467000000    -3.090000000
O    -4.622000000    -5.253000000     2.470000000
H    -5.559000000    -5.344000000     2.297000000
H    -4.490000000    -4.312000000     2.589000000
O    -0.581000000     0.977000000     4.776000000
H    -0.434000000     1.111000000     5.712000000
H    -0.762000000     1.852000000     4.433000000
O     4.500000000     0.019000000    -3.603000000
H     4.005000000     0.315000000    -4.368000000
H     4.451000000     0.752000000    -2.989000000
O     4.502000000     3.398000000     2.352000000
H     4.781000000     2.590000000     1.922000000
H     4.133000000     3.110000000     3.187000000
O    -0.813000000    -5.104000000    -0.137000000
H    -0.952000000    -4.337000000    -0.692000000
H    -1.686000000    -5.478000000    -0.022000000
O    -5.612000000    -1.936000000    -0.282000000
H    -4.893000000    -1.513000000     0.188000000
H    -6.012000000    -1.232000000    -0.792000000
O    -6.167000000    -0.996000000    -4.352000000
H    -5.385000000    -0.651000000    -3.922000000
H    -6.417000000    -1.754000000    -3.823000000
O     2.515000000    -5.437000000    -1.183000000
H     3.442000000    -5.599000000    -1.358000000
H     2.426000000    -5.554000000    -0.237000000
O    -4.338000000     3.483000000    -4.531000000
H    -3.476000000     3.196000000    -4.229000000
H    -4.921000000     3.308000000    -3.792000000
O    -2.247000000    -1.274000000     4.129000000
H    -1.746000000    -0.461000000     4.057000000
H    -2.700000000    -1.202000000     4.970000000
O     4.299000000     2.504000000    -2.366000000
H     4.987000000     2.891000000    -2.908000000
H     3.846000000     3.255000000    -1.983000000
O    -4.563000000     5.348000000     0.119000000
H    -4.955000000     6.072000000     0.608000000
H    -4.653000000     4.592000000     0.698000000
O    -3.135000000     3.369000000    -1.431000000
H    -3.377000000     2.585000000    -0.939000000
H    -3.967000000     3.813000000    -1.599000000
O    -4.014000000     3.049000000     1.939000000
H    -3.329000000     3.024000000     2.607000000
H    -3.721000000     2.427000000     1.273000000
O    -5.996000000     0.345000000     3.037000000
H    -5.679000000    -0.541000000     3.208000000
H    -5.242000000     0.801000000     2.663000000
O    -7.064000000    -2.734000000     3.412000000
H    -7.408000000    -3.056000000     2.580000000
H    -6.115000000    -2.719000000     3.289000000
O     0.787000000     3.143000000     2.133000000
H     1.279000000     2.628000000     2.772000000
H     0.883000000     2.660000000     1.312000000
O     3.840000000     5.484000000    -1.460000000
H     4.612000000     5.597000000    -0.905000000
H     3.912000000     6.178000000    -2.116000000
O    -3.794000000     0.197000000    -2.958000000
H    -3.623000000     0.887000000    -2.318000000
H    -2.929000000    -0.159000000    -3.164000000
O     6.605000000     2.109000000    -0.116000000
H     7.113000000     2.241000000    -0.917000000
H     5.730000000     2.430000000    -0.332000000
O     1.257000000    -2.940000000    -2.756000000
H     1.557000000    -3.477000000    -2.023000000
H     0.376000000    -2.663000000    -2.506000000
O    -1.306000000    -0.865000000    -2.742000000
H    -1.744000000    -1.710000000    -2.638000000
H    -0.681000000    -0.828000000    -2.018000000
O     4.840000000    -2.519000000    -2.047000000
H     5.709000000    -2.121000000    -2.013000000
H     4.251000000    -1.793000000    -2.253000000
O    -0.305000000     5.347000000     0.382000000
H    -0.541000000     4.783000000     1.118000000
H    -0.926000000     6.075000000     0.430000000
O     5.604000000    -3.352000000     1.027000000
H     6.004000000    -3.428000000     0.160000000
H     5.798000000    -2.456000000     1.302000000
O     3.756000000    -3.984000000    -3.861000000
H     4.286000000    -3.535000000    -3.203000000
H     2.909000000    -3.539000000    -3.831000000
O    -7.150000000    -3.908000000     0.665000000
H    -7.731000000    -3.585000000    -0.024000000
H    -6.280000000    -3.606000000     0.405000000
O    -3.509000000    -5.921000000     0.180000000
H    -3.747000000    -6.077000000     1.094000000
H    -4.139000000    -5.267000000    -0.123000000
O     1.607000000    -1.077000000    -4.634000000
H     1.455000000    -0.162000000    -4.397000000
H     1.542000000    -1.553000000    -3.806000000
O    -2.286000000     5.884000000    -3.993000000
H    -3.104000000     6.291000000    -3.707000000
H    -2.083000000     5.246000000    -3.309000000
O    -0.236000000    -4.429000000     2.579000000
H     0.553000000    -3.995000000     2.257000000
H    -0.334000000    -5.197000000     2.016000000
O    -1.947000000     2.280000000    -4.341000000
H    -1.409000000     1.685000000    -4.863000000
H    -1.637000000     2.158000000    -3.444000000
O    -5.867000000     2.655000000    -2.355000000
H    -6.462000000     3.333000000    -2.035000000
H    -6.034000000     1.902000000    -1.787000000
O    -5.974000000     0.762000000    -0.366000000
H    -6.361000000     0.404000000     0.433000000
H    -5.064000000     0.945000000    -0.131000000
O    -0.683000000     4.434000000    -2.016000000
H    -1.535000000     4.135000000    -1.697000000
H    -0.250000000     4.794000000    -1.241000000
O    -7.998000000    -0.422000000    -2.074000000
H    -7.489000000     0.327000000    -1.766000000
H    -8.538000000    -0.070000000    -2.781000000
O    -6.734000000     4.313000000     2.362000000
H    -7.635000000     4.036000000     2.531000000
H    -6.213000000     3.519000000     2.482000000
O    -1.726000000    -3.553000000    -2.248000000
H    -2.637000000    -3.690000000    -1.990000000
H    -1.611000000    -4.105000000    -3.022000000
O     3.101000000    -4.506000000     1.533000000
H     3.999000000    -4.237000000     1.336000000
H     3.133000000    -4.797000000     2.444000000
O    -1.195000000    -3.725000000     4.793000000
H    -0.793000000    -4.001000000     3.970000000
H    -1.625000000    -2.896000000     4.583000000
O     8.247000000    -0.011000000     1.057000000
H     7.739000000     0.672000000     0.619000000
H     8.550000000    -0.577000000     0.347000000
O    -0.712000000    -0.031000000    -5.413000000
H     0.222000000    -0.168000000    -5.572000000
H    -0.862000000    -0.391000000    -4.539000000
O     7.093000000    -1.608000000    -4.382000000
H     7.146000000    -2.414000000    -3.869000000
H     6.428000000    -1.083000000    -3.936000000
O     1.026000000     4.325000000    -4.388000000
H     0.352000000     4.452000000    -3.720000000
H     1.787000000     4.799000000    -4.054000000
O     1.530000000    -0.750000000     4.363000000
H     1.703000000    -0.511000000     3.452000000
H     0.806000000    -0.182000000     4.626000000
O    -4.389000000    -2.651000000     2.895000000
H    -3.953000000    -2.146000000     3.582000000
H    -3.956000000    -2.378000000     2.086000000
