161
-3059.27987
C    -1.159000000     0.115000000    -0.868000000
H    -1.942000000     0.187000000    -1.618000000
C     0.092000000    -0.349000000    -1.257000000
H     0.221000000    -0.713000000    -2.273000000
C     1.133000000    -0.288000000    -0.345000000
C     2.473000000    -0.829000000    -0.818000000
H     2.212000000    -1.449000000    -1.677000000
H     3.161000000    -0.005000000    -1.022000000
H     2.896000000    -1.455000000    -0.029000000
C     0.921000000     0.029000000     0.961000000
H     1.737000000     0.127000000     1.673000000
C    -0.366000000     0.380000000     1.425000000
H    -0.557000000     0.632000000     2.465000000
C    -1.377000000     0.455000000     0.470000000
C    -2.778000000     0.904000000     0.876000000
O    -3.095000000     1.140000000     2.029000000
O    -3.580000000     1.122000000     0.016000000
O    -2.002000000     1.464000000    -6.545000000
H    -1.827000000     1.094000000    -5.680000000
H    -1.250000000     2.030000000    -6.720000000
O     0.356000000    -1.365000000    -6.118000000
H     1.111000000    -1.039000000    -6.608000000
H     0.731000000    -1.736000000    -5.320000000
O     6.139000000    -1.032000000    -1.780000000
H     6.963000000    -1.518000000    -1.808000000
H     6.273000000    -0.373000000    -1.099000000
O     5.075000000    -2.269000000     4.742000000
H     4.726000000    -1.668000000     4.084000000
H     5.535000000    -2.938000000     4.235000000
O    -0.759000000     3.486000000    -2.748000000
H    -0.691000000     3.943000000    -1.910000000
H    -1.586000000     3.007000000    -2.693000000
O    -7.985000000     0.422000000    -0.920000000
H    -8.618000000    -0.294000000    -0.868000000
H    -7.139000000     0.006000000    -0.753000000
O    -3.497000000    -3.245000000     2.057000000
H    -3.314000000    -3.058000000     1.136000000
H    -3.150000000    -4.127000000     2.195000000
O    -6.085000000    -2.243000000     1.019000000
H    -6.492000000    -3.090000000     0.837000000
H    -5.261000000    -2.462000000     1.455000000
O     0.263000000    -3.469000000     0.702000000
H     0.220000000    -2.521000000     0.575000000
H     1.018000000    -3.746000000     0.184000000
O     3.438000000     0.555000000    -4.192000000
H     2.701000000    -0.011000000    -3.965000000
H     4.193000000    -0.033000000    -4.215000000
O    -5.779000000     0.490000000     1.902000000
H    -4.830000000     0.571000000     1.991000000
H    -5.961000000    -0.430000000     2.097000000
O    -5.166000000    -0.662000000    -3.697000000
H    -5.406000000    -0.939000000    -2.813000000
H    -5.367000000     0.273000000    -3.719000000
O     2.125000000    -5.306000000    -0.612000000
H     1.746000000    -4.797000000    -1.328000000
H     3.066000000    -5.301000000    -0.787000000
O    -5.231000000     3.195000000     0.575000000
H    -4.651000000     2.434000000     0.605000000
H    -6.111000000     2.829000000     0.669000000
O    -0.254000000    -3.996000000     3.480000000
H    -0.018000000    -3.634000000     2.627000000
H    -0.019000000    -4.922000000     3.421000000
O    -3.419000000     2.538000000    -2.377000000
H    -3.525000000     2.140000000    -1.513000000
H    -4.186000000     3.102000000    -2.477000000
O     3.621000000    -4.272000000    -3.461000000
H     4.139000000    -3.712000000    -4.040000000
H     3.885000000    -4.012000000    -2.578000000
O     3.446000000    -3.117000000     2.004000000
H     2.888000000    -2.694000000     2.657000000
H     3.067000000    -3.989000000     1.893000000
O     5.002000000    -1.817000000    -4.274000000
H     5.384000000    -1.445000000    -3.479000000
H     5.724000000    -1.831000000    -4.903000000
O    -5.397000000    -0.474000000    -0.984000000
H    -5.617000000    -1.197000000    -0.397000000
H    -4.848000000     0.105000000    -0.455000000
O    -3.727000000     0.412000000     4.646000000
H    -2.994000000     0.819000000     5.108000000
H    -3.517000000     0.521000000     3.719000000
O     4.495000000     1.653000000     1.691000000
H     4.300000000     0.764000000     1.393000000
H     4.400000000     2.195000000     0.907000000
O     6.783000000     1.056000000     3.306000000
H     6.924000000     0.391000000     2.632000000
H     5.899000000     1.383000000     3.138000000
O     4.929000000    -1.048000000     1.421000000
H     5.764000000    -1.514000000     1.447000000
H     4.279000000    -1.705000000     1.670000000
O     2.170000000    -2.132000000     4.238000000
H     2.342000000    -1.194000000     4.149000000
H     1.373000000    -2.180000000     4.766000000
O     0.153000000     0.785000000    -4.573000000
H    -0.678000000     0.656000000    -4.117000000
H     0.233000000     0.025000000    -5.148000000
O    -1.870000000     4.030000000     0.644000000
H    -2.574000000     4.670000000     0.538000000
H    -2.013000000     3.657000000     1.514000000
O     4.711000000    -4.015000000    -0.841000000
H     5.269000000    -3.367000000    -0.412000000
H     4.993000000    -4.853000000    -0.475000000
O     3.194000000     0.343000000     4.694000000
H     2.776000000     0.852000000     5.389000000
H     3.263000000     0.953000000     3.960000000
O    -3.977000000    -2.338000000     4.709000000
H    -3.558000000    -2.487000000     3.861000000
H    -3.958000000    -1.388000000     4.822000000
O     1.554000000     2.867000000     0.692000000
H     1.412000000     1.920000000     0.719000000
H     1.208000000     3.137000000    -0.159000000
O     0.456000000     3.280000000    -5.620000000
H     0.215000000     2.611000000    -4.978000000
H     1.208000000     2.909000000    -6.081000000
O    -2.771000000    -4.089000000    -0.766000000
H    -1.914000000    -4.308000000    -0.402000000
H    -2.588000000    -3.827000000    -1.669000000
O     1.925000000    -1.894000000    -4.090000000
H     2.856000000    -1.917000000    -4.309000000
H     1.765000000    -2.722000000    -3.638000000
O    -2.909000000     5.315000000     4.726000000
H    -2.801000000     4.454000000     4.322000000
H    -2.083000000     5.469000000     5.185000000
O    -5.195000000     5.622000000    -0.805000000
H    -4.515000000     6.216000000    -0.488000000
H    -5.170000000     4.883000000    -0.196000000
O    -7.868000000     1.966000000     1.500000000
H    -7.156000000     1.350000000     1.673000000
H    -8.220000000     1.694000000     0.653000000
O    -5.784000000     4.417000000     3.696000000
H    -6.539000000     4.305000000     3.119000000
H    -5.349000000     3.564000000     3.690000000
O    -2.128000000     3.005000000     3.522000000
H    -2.412000000     2.276000000     2.970000000
H    -1.911000000     2.599000000     4.361000000
O    -2.492000000     0.506000000    -3.926000000
H    -3.151000000    -0.174000000    -3.784000000
H    -2.832000000     1.270000000    -3.459000000
O     3.324000000     3.993000000     2.888000000
H     3.009000000     3.873000000     1.992000000
H     3.841000000     3.208000000     3.068000000
O    -2.122000000    -3.036000000    -3.980000000
H    -2.160000000    -2.575000000    -4.818000000
H    -3.008000000    -3.377000000    -3.855000000
O     5.461000000     2.857000000    -3.051000000
H     5.059000000     1.989000000    -3.013000000
H     4.801000000     3.442000000    -2.679000000
O     1.836000000     2.507000000    -2.599000000
H     1.806000000     1.714000000    -3.135000000
H     0.982000000     2.918000000    -2.733000000
O     4.041000000     3.076000000    -0.707000000
H     3.620000000     3.867000000    -0.370000000
H     3.344000000     2.612000000    -1.171000000
O    -0.445000000    -2.840000000     5.789000000
H    -0.464000000    -3.049000000     4.855000000
H    -0.480000000    -3.691000000     6.225000000
O     0.509000000    -3.979000000    -2.864000000
H     0.292000000    -4.888000000    -3.070000000
H    -0.293000000    -3.492000000    -3.055000000
O    -1.796000000     1.683000000     5.972000000
H    -1.567000000     0.871000000     6.425000000
H    -1.493000000     2.377000000     6.557000000
