161
-3029.91076
C    -0.182000000     1.244000000     0.693000000
H    -0.159000000     2.076000000     1.392000000
C     1.031000000     0.843000000     0.171000000
H     1.846000000     1.562000000     0.207000000
C     1.057000000    -0.310000000    -0.561000000
C     2.257000000    -0.649000000    -1.390000000
H     3.006000000    -1.114000000    -0.746000000
H     2.084000000    -1.344000000    -2.215000000
H     2.619000000     0.301000000    -1.788000000
C    -0.085000000    -1.137000000    -0.586000000
H    -0.119000000    -2.127000000    -1.033000000
C    -1.297000000    -0.829000000     0.031000000
H    -2.091000000    -1.570000000    -0.019000000
C    -1.335000000     0.423000000     0.660000000
C    -2.545000000     0.756000000     1.509000000
O    -3.627000000     0.226000000     1.338000000
O    -2.462000000     1.652000000     2.339000000
O    -4.858000000     5.212000000    -0.199000000
H    -4.371000000     4.844000000     0.538000000
H    -4.193000000     5.380000000    -0.867000000
O     3.180000000    -5.595000000     1.661000000
H     3.810000000    -5.921000000     1.018000000
H     3.483000000    -4.711000000     1.868000000
O    -0.357000000     0.287000000    -4.707000000
H    -0.733000000     1.043000000    -4.255000000
H    -0.047000000     0.638000000    -5.542000000
O    -2.157000000    -6.478000000     0.689000000
H    -1.465000000    -6.917000000     1.184000000
H    -2.642000000    -5.979000000     1.347000000
O     6.990000000    -1.287000000    -1.656000000
H     6.615000000    -0.998000000    -0.825000000
H     7.661000000    -1.923000000    -1.407000000
O    -7.354000000     1.352000000     3.785000000
H    -7.166000000     1.711000000     4.652000000
H    -8.305000000     1.415000000     3.701000000
O    -3.744000000    -2.569000000    -1.794000000
H    -3.098000000    -2.020000000    -2.239000000
H    -3.282000000    -3.389000000    -1.621000000
O    -1.855000000    -4.601000000    -1.645000000
H    -1.433000000    -5.024000000    -0.897000000
H    -1.574000000    -5.116000000    -2.401000000
O     3.532000000     4.010000000     0.813000000
H     3.247000000     3.517000000     1.582000000
H     2.719000000     4.296000000     0.397000000
O     1.328000000    -1.825000000    -5.049000000
H     0.723000000    -1.099000000    -4.898000000
H     2.186000000    -1.477000000    -4.805000000
O    -0.272000000     4.508000000    -2.911000000
H     0.030000000     4.510000000    -3.819000000
H    -0.563000000     3.609000000    -2.757000000
O    -4.800000000    -1.969000000     0.732000000
H    -4.548000000    -2.153000000    -0.173000000
H    -4.361000000    -1.144000000     0.939000000
O     0.776000000    -4.588000000    -5.056000000
H     0.760000000    -3.644000000    -5.209000000
H     0.151000000    -4.726000000    -4.344000000
O    -1.293000000     2.111000000    -2.482000000
H    -2.217000000     1.867000000    -2.540000000
H    -0.915000000     1.477000000    -1.872000000
O    -4.502000000     0.365000000     3.935000000
H    -3.858000000     0.658000000     3.290000000
H    -5.240000000     0.964000000     3.826000000
O    -4.800000000     3.339000000     3.574000000
H    -4.573000000     3.554000000     2.670000000
H    -3.961000000     3.148000000     3.993000000
O    -2.337000000     2.386000000     4.997000000
H    -2.355000000     2.004000000     4.119000000
H    -2.793000000     1.748000000     5.545000000
O    -0.618000000    -2.605000000     2.751000000
H    -1.222000000    -2.960000000     3.404000000
H    -0.506000000    -3.314000000     2.118000000
O     1.972000000    -0.041000000     5.751000000
H     1.218000000    -0.100000000     5.164000000
H     1.700000000     0.579000000     6.429000000
O    -3.680000000    -5.469000000     2.743000000
H    -3.195000000    -4.815000000     3.246000000
H    -4.238000000    -5.902000000     3.388000000
O    -1.273000000     4.729000000     5.770000000
H    -1.529000000     3.956000000     5.266000000
H    -2.077000000     5.001000000     6.214000000
O     3.172000000    -2.109000000     4.491000000
H     2.839000000    -1.438000000     5.088000000
H     2.671000000    -1.982000000     3.686000000
O     0.355000000    -5.200000000     2.117000000
H     0.287000000    -6.133000000     1.914000000
H     1.288000000    -5.057000000     2.275000000
O     5.540000000    -0.330000000     0.641000000
H     4.969000000    -0.260000000     1.406000000
H     5.341000000     0.449000000     0.121000000
O    -2.946000000    -1.236000000    -4.411000000
H    -2.140000000    -0.732000000    -4.523000000
H    -3.239000000    -1.421000000    -5.303000000
O    -0.214000000    -0.025000000     4.090000000
H    -0.209000000    -0.852000000     3.608000000
H    -0.885000000     0.502000000     3.655000000
O     1.504000000     4.805000000    -0.614000000
H     2.087000000     5.320000000    -1.171000000
H     0.657000000     4.837000000    -1.058000000
O    -7.987000000     2.985000000     0.470000000
H    -7.294000000     3.079000000    -0.183000000
H    -7.732000000     2.217000000     0.981000000
O     2.030000000    -1.761000000     2.162000000
H     1.958000000    -0.814000000     2.048000000
H     1.124000000    -2.070000000     2.180000000
O    -8.222000000    -1.115000000     1.937000000
H    -8.104000000    -0.190000000     2.154000000
H    -7.361000000    -1.507000000     2.084000000
O    -0.288000000     5.200000000     1.587000000
H     0.072000000     5.339000000     0.711000000
H     0.465000000     5.287000000     2.172000000
O     3.059000000    -6.190000000    -2.263000000
H     3.115000000    -6.593000000    -3.129000000
H     3.510000000    -5.351000000    -2.360000000
O     5.107000000     2.031000000    -0.850000000
H     5.642000000     2.825000000    -0.852000000
H     4.207000000     2.349000000    -0.916000000
O    -2.188000000     6.988000000     2.612000000
H    -1.528000000     6.348000000     2.346000000
H    -1.880000000     7.313000000     3.458000000
O    -6.112000000     0.842000000    -1.425000000
H    -6.256000000     0.653000000    -0.498000000
H    -6.858000000     0.440000000    -1.870000000
O    -3.875000000     0.903000000    -2.906000000
H    -3.507000000     0.098000000    -3.270000000
H    -4.597000000     0.607000000    -2.351000000
O     4.957000000    -3.655000000     2.688000000
H     5.786000000    -3.193000000     2.813000000
H     4.368000000    -3.272000000     3.338000000
O    -2.768000000    -0.618000000     6.139000000
H    -3.013000000    -0.450000000     5.229000000
H    -3.285000000     0.008000000     6.645000000
O     5.129000000     0.121000000    -6.742000000
H     4.410000000    -0.077000000    -6.141000000
H     4.707000000     0.216000000    -7.596000000
O    -5.093000000    -4.596000000     0.670000000
H    -4.625000000    -5.111000000     1.326000000
H    -4.957000000    -3.687000000     0.937000000
O     4.993000000    -3.805000000    -2.197000000
H     5.900000000    -3.629000000    -2.446000000
H     4.906000000    -3.425000000    -1.322000000
O     3.549000000    -0.257000000    -4.513000000
H     4.176000000    -0.044000000    -3.821000000
H     3.082000000     0.563000000    -4.673000000
O    -5.952000000    -2.523000000    -3.711000000
H    -6.201000000    -3.434000000    -3.552000000
H    -5.140000000    -2.408000000    -3.216000000
O    -3.035000000     4.034000000     1.302000000
H    -2.288000000     4.475000000     0.897000000
H    -2.687000000     3.190000000     1.590000000
O    -5.483000000    -2.062000000     3.411000000
H    -5.155000000    -1.221000000     3.729000000
H    -5.329000000    -2.037000000     2.467000000
O    -6.188000000     0.937000000     1.294000000
H    -5.272000000     0.673000000     1.379000000
H    -6.481000000     1.080000000     2.194000000
O     2.833000000     3.464000000     3.387000000
H     2.200000000     4.008000000     3.854000000
H     3.572000000     3.384000000     3.990000000
O     3.166000000     2.490000000    -5.301000000
H     2.573000000     3.041000000    -4.789000000
H     3.828000000     3.096000000    -5.633000000
