161
-2985.91872
C    -0.988000000     1.148000000    -0.025000000
H    -1.533000000     2.088000000    -0.071000000
C     0.263000000     1.080000000    -0.696000000
H     0.618000000     1.978000000    -1.196000000
C     1.054000000    -0.087000000    -0.649000000
C     2.475000000    -0.046000000    -1.155000000
H     2.503000000     0.002000000    -2.246000000
H     3.106000000     0.777000000    -0.815000000
H     2.995000000    -0.960000000    -0.863000000
C     0.660000000    -1.186000000     0.098000000
H     1.222000000    -2.091000000     0.311000000
C    -0.579000000    -1.117000000     0.709000000
H    -1.027000000    -2.042000000     1.062000000
C    -1.501000000    -0.027000000     0.630000000
C    -2.785000000     0.110000000     1.383000000
O    -3.300000000    -0.820000000     1.960000000
O    -3.184000000     1.198000000     1.571000000
O    -2.661000000     5.171000000    -1.288000000
H    -1.785000000     5.545000000    -1.382000000
H    -2.856000000     5.247000000    -0.354000000
O    -1.922000000    -1.399000000    -3.527000000
H    -2.239000000    -1.833000000    -2.735000000
H    -2.186000000    -0.485000000    -3.421000000
O    -1.391000000     3.697000000    -4.399000000
H    -0.850000000     4.483000000    -4.472000000
H    -1.910000000     3.835000000    -3.607000000
O     5.551000000    -2.168000000     1.669000000
H     5.146000000    -1.864000000     2.482000000
H     6.289000000    -1.574000000     1.533000000
O    -6.775000000     1.049000000     5.176000000
H    -6.081000000     1.542000000     4.739000000
H    -7.561000000     1.236000000     4.662000000
O    -2.614000000    -4.378000000     0.498000000
H    -2.829000000    -3.916000000    -0.313000000
H    -1.669000000    -4.523000000     0.448000000
O     0.552000000    -4.481000000    -4.221000000
H     0.813000000    -5.315000000    -3.829000000
H     0.942000000    -3.817000000    -3.653000000
O     3.003000000     2.724000000     2.583000000
H     3.906000000     2.595000000     2.294000000
H     2.987000000     2.387000000     3.478000000
O     5.645000000     2.312000000     1.902000000
H     6.188000000     2.313000000     2.691000000
H     5.501000000     1.385000000     1.713000000
O     2.231000000     3.228000000    -4.450000000
H     1.497000000     2.981000000    -3.888000000
H     2.317000000     2.501000000    -5.066000000
O    -3.480000000    -3.700000000     3.002000000
H    -4.068000000    -3.046000000     2.622000000
H    -3.061000000    -4.113000000     2.247000000
O     1.684000000    -2.682000000    -2.404000000
H     2.637000000    -2.603000000    -2.347000000
H     1.352000000    -1.992000000    -1.829000000
O    -4.380000000     0.654000000    -1.876000000
H    -4.375000000    -0.294000000    -1.743000000
H    -4.733000000     1.008000000    -1.060000000
O    -1.764000000    -0.824000000     4.430000000
H    -2.511000000    -0.925000000     3.841000000
H    -1.034000000    -1.229000000     3.962000000
O    -7.374000000     0.757000000     2.065000000
H    -7.612000000     1.671000000     2.221000000
H    -8.112000000     0.255000000     2.411000000
O    -7.779000000    -1.731000000     4.995000000
H    -7.776000000    -2.544000000     4.490000000
H    -7.016000000    -1.249000000     4.677000000
O    -5.314000000    -0.990000000     3.619000000
H    -4.589000000    -0.989000000     2.995000000
H    -5.354000000    -0.090000000     3.942000000
O     4.242000000    -3.040000000    -0.941000000
H     4.162000000    -3.990000000    -0.852000000
H     4.773000000    -2.774000000    -0.191000000
O    -4.374000000     5.316000000     3.255000000
H    -4.265000000     6.013000000     2.608000000
H    -3.706000000     4.670000000     3.026000000
O    -4.659000000     2.184000000     3.749000000
H    -4.187000000     1.611000000     3.145000000
H    -4.454000000     3.069000000     3.449000000
O     4.952000000    -4.876000000     1.960000000
H     5.219000000    -3.958000000     1.919000000
H     5.468000000    -5.306000000     1.277000000
O     4.133000000    -0.616000000     3.539000000
H     3.229000000    -0.516000000     3.241000000
H     4.056000000    -0.831000000     4.469000000
O    -3.534000000    -3.842000000    -2.403000000
H    -3.492000000    -4.490000000    -3.107000000
H    -4.220000000    -4.166000000    -1.820000000
O    -0.530000000     2.179000000     4.517000000
H    -1.327000000     2.576000000     4.165000000
H    -0.842000000     1.562000000     5.179000000
O     2.107000000     4.587000000    -2.148000000
H     2.492000000     4.406000000    -1.290000000
H     2.790000000     4.345000000    -2.773000000
O    -4.618000000     5.249000000    -3.030000000
H    -3.905000000     5.171000000    -2.397000000
H    -4.912000000     4.350000000    -3.173000000
O     1.142000000     0.121000000     3.029000000
H     0.860000000     0.793000000     3.649000000
H     0.880000000     0.461000000     2.173000000
O    -6.730000000    -2.516000000     1.544000000
H    -6.665000000    -1.674000000     1.996000000
H    -7.148000000    -3.097000000     2.179000000
O    -7.607000000     0.723000000    -1.488000000
H    -7.873000000    -0.192000000    -1.578000000
H    -7.130000000     0.754000000    -0.659000000
O     5.289000000     3.528000000    -0.606000000
H     5.492000000     3.120000000     0.235000000
H     4.529000000     4.082000000    -0.426000000
O     3.677000000     5.328000000     0.305000000
H     2.766000000     5.428000000     0.580000000
H     4.187000000     5.529000000     1.089000000
O    -4.549000000    -1.867000000     0.006000000
H    -5.076000000    -2.573000000     0.381000000
H    -4.161000000    -1.430000000     0.764000000
O    -4.793000000     2.788000000    -3.614000000
H    -4.589000000     2.135000000    -2.944000000
H    -4.699000000     2.318000000    -4.442000000
O     6.447000000     1.988000000    -2.332000000
H     6.246000000     1.055000000    -2.400000000
H     5.698000000     2.362000000    -1.868000000
O     2.015000000    -4.358000000     2.357000000
H     2.025000000    -5.127000000     2.927000000
H     2.677000000    -4.544000000     1.691000000
O    -2.355000000    -0.267000000     6.891000000
H    -2.167000000    -0.385000000     5.960000000
H    -2.973000000     0.463000000     6.920000000
O    -0.926000000    -4.630000000     3.827000000
H    -0.137000000    -4.134000000     3.606000000
H    -1.645000000    -4.016000000     3.678000000
O     5.272000000    -4.320000000    -3.994000000
H     4.873000000    -4.152000000    -3.140000000
H     6.083000000    -3.812000000    -3.983000000
O     4.055000000    -0.976000000    -4.296000000
H     4.362000000    -1.560000000    -4.990000000
H     4.838000000    -0.786000000    -3.779000000
O     6.482000000    -0.731000000    -2.547000000
H     6.465000000    -1.669000000    -2.735000000
H     7.258000000    -0.610000000    -2.001000000
O    -3.848000000    -2.997000000     5.866000000
H    -3.920000000    -2.780000000     4.936000000
H    -3.034000000    -3.497000000     5.932000000
O    -2.289000000     3.600000000     2.515000000
H    -1.359000000     3.566000000     2.290000000
H    -2.658000000     2.805000000     2.130000000
O     0.488000000    -2.297000000     3.673000000
H     0.814000000    -1.454000000     3.359000000
H     1.172000000    -2.923000000     3.435000000
O    -5.465000000     1.664000000     0.351000000
H    -4.586000000     1.785000000     0.711000000
H    -5.998000000     1.407000000     1.104000000
O    -0.234000000     6.136000000    -2.535000000
H    -0.180000000     6.544000000    -1.670000000
H     0.409000000     5.428000000    -2.506000000
O     0.402000000     3.466000000     2.480000000
H     0.207000000     2.912000000     3.236000000
H     1.317000000     3.273000000     2.272000000
O    -0.058000000    -5.199000000    -0.447000000
H     0.362000000    -5.577000000    -1.219000000
H     0.173000000    -4.270000000    -0.479000000
O     2.052000000     0.552000000    -5.702000000
H     2.645000000     0.127000000    -5.083000000
H     1.397000000    -0.116000000    -5.904000000
