161
-3033.70038
C     0.144000000     1.093000000     0.852000000
H     0.489000000     1.858000000     1.543000000
C     1.095000000     0.639000000    -0.064000000
H     2.090000000     1.064000000     0.041000000
C     0.725000000    -0.321000000    -0.975000000
C     1.820000000    -0.974000000    -1.736000000
H     1.754000000    -2.063000000    -1.699000000
H     1.833000000    -0.614000000    -2.766000000
H     2.752000000    -0.818000000    -1.189000000
C    -0.522000000    -0.941000000    -0.879000000
H    -0.636000000    -1.845000000    -1.471000000
C    -1.434000000    -0.458000000     0.048000000
H    -2.460000000    -0.818000000     0.077000000
C    -1.107000000     0.573000000     0.938000000
C    -1.954000000     1.168000000     2.075000000
O    -3.026000000     0.629000000     2.175000000
O    -1.557000000     1.822000000     3.033000000
O     4.135000000    -4.301000000    -1.236000000
H     4.094000000    -5.147000000    -1.681000000
H     4.118000000    -3.656000000    -1.943000000
O     6.268000000    -0.624000000    -0.437000000
H     6.299000000    -0.196000000     0.419000000
H     5.838000000     0.013000000    -1.008000000
O    -2.618000000    -4.537000000    -2.844000000
H    -3.105000000    -5.330000000    -3.070000000
H    -1.857000000    -4.854000000    -2.357000000
O     3.789000000     5.678000000     1.150000000
H     4.303000000     5.703000000     1.957000000
H     3.768000000     4.752000000     0.909000000
O    -6.428000000     1.858000000    -1.643000000
H    -7.314000000     1.850000000    -1.282000000
H    -5.936000000     1.256000000    -1.085000000
O     0.529000000     3.486000000     3.646000000
H     0.028000000     2.725000000     3.355000000
H     0.005000000     4.238000000     3.370000000
O    -0.989000000     2.487000000    -2.223000000
H    -1.818000000     2.009000000    -2.208000000
H    -0.433000000     2.023000000    -1.596000000
O    -4.389000000    -1.682000000     2.405000000
H    -4.860000000    -1.382000000     1.627000000
H    -3.656000000    -1.073000000     2.491000000
O     4.911000000     0.948000000    -2.194000000
H     4.334000000     0.505000000    -2.816000000
H     5.534000000     1.425000000    -2.743000000
O     7.674000000    -2.001000000    -2.663000000
H     8.004000000    -1.463000000    -3.382000000
H     7.085000000    -1.421000000    -2.180000000
O    -2.972000000    -3.234000000    -5.278000000
H    -2.849000000    -3.426000000    -4.348000000
H    -3.863000000    -3.529000000    -5.468000000
O     0.532000000     1.803000000    -6.687000000
H     0.944000000     2.269000000    -5.959000000
H     1.184000000     1.829000000    -7.387000000
O    -3.016000000     0.654000000    -2.740000000
H    -3.305000000    -0.202000000    -2.425000000
H    -3.170000000     0.627000000    -3.684000000
O    -5.165000000     1.558000000     3.359000000
H    -4.340000000     1.091000000     3.232000000
H    -4.904000000     2.461000000     3.541000000
O     6.250000000    -3.042000000     0.361000000
H     6.422000000    -2.172000000     0.000000000
H     5.418000000    -3.304000000    -0.033000000
O    -2.921000000     3.436000000     4.885000000
H    -2.497000000     2.947000000     4.180000000
H    -2.252000000     4.050000000     5.187000000
O    -2.054000000    -2.574000000     4.582000000
H    -2.270000000    -2.301000000     3.690000000
H    -2.567000000    -3.370000000     4.719000000
O     1.884000000    -1.259000000     5.018000000
H     0.947000000    -1.066000000     5.058000000
H     1.972000000    -2.107000000     5.452000000
O     4.507000000    -3.563000000     2.888000000
H     3.826000000    -3.003000000     2.517000000
H     5.169000000    -3.624000000     2.200000000
O    -1.393000000     5.612000000     3.624000000
H    -2.024000000     6.051000000     3.053000000
H    -0.759000000     6.293000000     3.849000000
O     5.993000000     2.401000000     1.452000000
H     6.280000000     2.505000000     2.359000000
H     5.225000000     1.833000000     1.507000000
O     2.592000000    -1.565000000     2.440000000
H     2.409000000    -1.444000000     3.372000000
H     1.838000000    -2.054000000     2.110000000
O    -0.665000000    -5.221000000    -1.228000000
H     0.146000000    -4.859000000    -1.586000000
H    -0.482000000    -5.343000000    -0.297000000
O     3.551000000     3.218000000    -0.446000000
H     4.251000000     2.609000000    -0.683000000
H     3.386000000     3.043000000     0.481000000
O    -0.586000000    -0.020000000     4.635000000
H    -1.301000000    -0.644000000     4.758000000
H    -1.006000000     0.756000000     4.264000000
O    -6.665000000    -1.934000000    -2.481000000
H    -6.644000000    -2.878000000    -2.641000000
H    -6.630000000    -1.852000000    -1.528000000
O     3.620000000     0.894000000     4.659000000
H     2.907000000     0.256000000     4.682000000
H     4.362000000     0.412000000     4.292000000
O     0.102000000     4.876000000    -0.532000000
H     1.001000000     5.196000000    -0.608000000
H    -0.086000000     4.486000000    -1.386000000
O     0.105000000    -2.666000000     1.379000000
H     0.062000000    -2.145000000     0.577000000
H    -0.801000000    -2.928000000     1.543000000
O    -0.061000000     2.318000000     6.583000000
H    -0.716000000     1.635000000     6.730000000
H    -0.131000000     2.519000000     5.650000000
O    -4.862000000     2.528000000     6.501000000
H    -4.934000000     3.107000000     7.260000000
H    -4.279000000     2.993000000     5.900000000
O    -2.135000000     3.976000000     0.952000000
H    -1.415000000     4.159000000     0.348000000
H    -1.844000000     4.342000000     1.788000000
O     1.158000000    -3.951000000    -4.019000000
H     1.399000000    -4.519000000    -4.751000000
H     0.201000000    -3.954000000    -4.018000000
O     2.897000000     3.110000000     2.459000000
H     1.989000000     3.252000000     2.728000000
H     3.099000000     2.223000000     2.755000000
O    -4.736000000     0.788000000     0.186000000
H    -4.076000000     0.740000000     0.877000000
H    -4.245000000     0.660000000    -0.625000000
O    -6.493000000    -2.236000000     0.202000000
H    -7.154000000    -2.000000000     0.854000000
H    -6.218000000    -3.119000000     0.450000000
O     4.404000000     0.392000000     1.812000000
H     5.291000000     0.147000000     2.075000000
H     3.876000000    -0.385000000     1.994000000
O     3.201000000    -0.020000000    -5.042000000
H     2.664000000     0.766000000    -5.145000000
H     3.288000000    -0.369000000    -5.930000000
O    -2.418000000    -3.612000000     1.635000000
H    -2.745000000    -4.462000000     1.340000000
H    -3.157000000    -3.015000000     1.511000000
O     3.892000000    -2.556000000    -3.458000000
H     3.611000000    -1.660000000    -3.644000000
H     3.079000000    -3.058000000    -3.416000000
O     2.675000000     3.158000000    -5.027000000
H     1.997000000     3.655000000    -5.484000000
H     2.776000000     3.606000000    -4.187000000
O    -3.844000000    -1.772000000    -1.564000000
H    -4.634000000    -2.260000000    -1.797000000
H    -3.195000000    -2.447000000    -1.368000000
O    -4.960000000     3.641000000     0.949000000
H    -4.015000000     3.567000000     1.083000000
H    -5.235000000     2.762000000     0.688000000
O     2.997000000    -6.097000000     0.824000000
H     3.225000000    -5.404000000     0.205000000
H     2.104000000    -5.889000000     1.099000000
O    -5.985000000    -2.049000000     4.791000000
H    -6.800000000    -2.334000000     4.378000000
H    -5.404000000    -1.841000000     4.059000000
O    -4.392000000    -0.084000000     6.497000000
H    -4.577000000     0.837000000     6.312000000
H    -4.927000000    -0.567000000     5.867000000
O     3.698000000     4.778000000    -2.653000000
H     3.236000000     5.581000000    -2.412000000
H     3.451000000     4.147000000    -1.977000000
O    -7.377000000     0.041000000     2.091000000
H    -7.019000000     0.164000000     1.212000000
H    -6.814000000     0.571000000     2.655000000
