161
-3030.25848
C     0.446000000     1.327000000    -0.388000000
H     0.751000000     2.243000000    -0.887000000
C     0.845000000     0.184000000    -1.019000000
H     1.554000000     0.191000000    -1.843000000
C     0.383000000    -1.033000000    -0.531000000
C     0.790000000    -2.348000000    -1.209000000
H    -0.012000000    -3.057000000    -0.993000000
H     0.828000000    -2.120000000    -2.276000000
H     1.777000000    -2.751000000    -0.971000000
C    -0.460000000    -1.009000000     0.604000000
H    -0.872000000    -1.957000000     0.940000000
C    -0.958000000     0.126000000     1.200000000
H    -1.675000000     0.092000000     2.016000000
C    -0.544000000     1.333000000     0.607000000
C    -0.880000000     2.622000000     1.337000000
O    -1.832000000     2.558000000     2.118000000
O    -0.149000000     3.607000000     1.301000000
O    -0.817000000     6.260000000    -3.786000000
H    -1.391000000     6.411000000    -4.537000000
H    -0.824000000     5.310000000    -3.666000000
O    -5.023000000     3.882000000     0.835000000
H    -4.232000000     4.420000000     0.851000000
H    -5.658000000     4.374000000     1.357000000
O     3.607000000    -0.502000000     4.189000000
H     3.297000000     0.391000000     4.341000000
H     2.974000000    -0.874000000     3.574000000
O     3.590000000    -4.301000000     1.684000000
H     3.756000000    -4.994000000     1.045000000
H     4.118000000    -3.563000000     1.380000000
O     3.038000000     6.576000000    -1.907000000
H     2.215000000     6.107000000    -1.767000000
H     2.882000000     7.446000000    -1.541000000
O     0.087000000    -5.678000000    -1.784000000
H    -0.163000000    -5.915000000    -2.677000000
H     0.213000000    -6.517000000    -1.340000000
O    -2.538000000     5.017000000     3.134000000
H    -2.159000000     5.648000000     2.522000000
H    -2.212000000     4.168000000     2.835000000
O    -0.227000000    -0.352000000     5.248000000
H     0.590000000    -0.341000000     4.749000000
H    -0.523000000    -1.261000000     5.203000000
O     6.077000000    -0.262000000    -4.650000000
H     6.165000000    -0.954000000    -3.995000000
H     5.135000000    -0.099000000    -4.701000000
O    -4.102000000     1.338000000     1.993000000
H    -4.357000000     2.087000000     1.456000000
H    -3.177000000     1.487000000     2.189000000
O    -1.944000000     8.780000000     1.742000000
H    -1.635000000     9.580000000     2.167000000
H    -1.309000000     8.112000000     2.000000000
O    -4.549000000     4.135000000    -2.421000000
H    -4.190000000     3.926000000    -1.558000000
H    -4.643000000     3.287000000    -2.853000000
O    -3.561000000     2.190000000     7.303000000
H    -3.252000000     2.181000000     6.398000000
H    -3.993000000     3.038000000     7.401000000
O     2.312000000     0.695000000    -5.004000000
H     2.816000000     0.965000000    -4.236000000
H     2.656000000     1.232000000    -5.718000000
O     4.998000000    -2.322000000     0.556000000
H     4.459000000    -1.698000000     0.070000000
H     5.689000000    -2.570000000    -0.057000000
O    -1.940000000     5.589000000     5.775000000
H    -2.238000000     5.278000000     4.921000000
H    -1.228000000     6.197000000     5.573000000
O     3.085000000     3.135000000     1.150000000
H     3.317000000     3.996000000     1.497000000
H     2.138000000     3.179000000     1.015000000
O    -0.640000000    -4.720000000    -5.307000000
H    -1.164000000    -4.070000000    -4.837000000
H    -0.869000000    -5.554000000    -4.897000000
O    -3.031000000     2.096000000    -1.388000000
H    -3.272000000     1.445000000    -2.048000000
H    -3.172000000     1.652000000    -0.552000000
O     1.409000000    -1.276000000     3.088000000
H     1.236000000    -0.755000000     2.304000000
H     1.195000000    -2.173000000     2.831000000
O     1.116000000    -3.642000000    -7.197000000
H     0.450000000    -4.229000000    -6.838000000
H     0.863000000    -2.773000000    -6.885000000
O     2.991000000    -2.447000000    -3.936000000
H     2.924000000    -2.891000000    -3.091000000
H     2.326000000    -1.760000000    -3.900000000
O     3.240000000     5.932000000     1.806000000
H     2.838000000     6.787000000     1.650000000
H     4.170000000     6.124000000     1.924000000
O     3.506000000    -4.463000000    -6.179000000
H     3.315000000    -4.271000000    -5.261000000
H     2.695000000    -4.250000000    -6.642000000
O     0.829000000    -1.013000000    -6.466000000
H     1.107000000    -0.818000000    -7.361000000
H     1.493000000    -0.600000000    -5.914000000
O    -1.923000000     1.930000000     4.891000000
H    -1.399000000     1.141000000     5.027000000
H    -1.851000000     2.107000000     3.953000000
O     4.321000000     4.110000000    -2.584000000
H     4.962000000     4.656000000    -2.128000000
H     3.659000000     4.726000000    -2.896000000
O    -2.955000000     5.945000000     0.296000000
H    -2.218000000     6.371000000     0.733000000
H    -2.770000000     6.046000000    -0.638000000
O    -1.896000000    -1.413000000    -6.402000000
H    -0.959000000    -1.223000000    -6.354000000
H    -2.129000000    -1.695000000    -5.518000000
O     0.539000000     4.991000000    -0.983000000
H    -0.001000000     4.594000000    -1.666000000
H     0.178000000     4.652000000    -0.164000000
O     1.120000000     4.076000000     3.572000000
H     0.466000000     4.498000000     4.129000000
H     0.636000000     3.817000000     2.788000000
O    -0.441000000    -5.289000000     0.957000000
H    -0.764000000    -6.181000000     1.087000000
H    -0.236000000    -5.242000000     0.023000000
O    -4.112000000    -3.770000000     4.674000000
H    -3.533000000    -3.773000000     5.436000000
H    -4.362000000    -2.853000000     4.567000000
O    -0.141000000     2.339000000    -5.391000000
H     0.216000000     2.763000000    -6.171000000
H     0.230000000     1.457000000    -5.406000000
O    -3.426000000    -3.128000000     0.346000000
H    -2.829000000    -3.727000000     0.794000000
H    -4.190000000    -3.077000000     0.920000000
O     4.551000000     0.251000000    -0.442000000
H     5.285000000     0.483000000     0.127000000
H     3.786000000     0.637000000    -0.015000000
O    -4.747000000     3.364000000     4.426000000
H    -4.563000000     4.096000000     3.837000000
H    -3.933000000     2.861000000     4.444000000
O    -4.515000000    -1.854000000    -1.890000000
H    -4.098000000    -2.199000000    -1.100000000
H    -4.056000000    -1.032000000    -2.063000000
O     2.863000000    -5.599000000    -2.281000000
H     2.021000000    -5.656000000    -1.831000000
H     3.511000000    -5.779000000    -1.600000000
O    -6.588000000     0.134000000     2.759000000
H    -5.727000000     0.495000000     2.547000000
H    -7.110000000     0.282000000     1.970000000
O     3.826000000     1.580000000    -2.795000000
H     3.854000000     2.522000000    -2.632000000
H     4.276000000     1.193000000    -2.044000000
O    -0.658000000     6.239000000     1.506000000
H    -0.039000000     6.962000000     1.400000000
H    -0.120000000     5.451000000     1.430000000
O     1.015000000    -3.714000000     2.595000000
H     0.367000000    -4.206000000     2.091000000
H     1.860000000    -4.027000000     2.270000000
O    -2.570000000    -3.063000000    -4.316000000
H    -2.843000000    -2.935000000    -3.407000000
H    -3.388000000    -3.064000000    -4.814000000
O     2.805000000     2.112000000     4.381000000
H     2.167000000     2.727000000     4.018000000
H     3.285000000     2.622000000     5.033000000
O     4.388000000    -6.557000000    -0.023000000
H     4.792000000    -7.349000000    -0.378000000
H     3.911000000    -6.857000000     0.751000000
O    -0.945000000     3.623000000    -2.825000000
H    -1.721000000     3.202000000    -2.456000000
H    -0.698000000     3.066000000    -3.563000000
O     3.224000000     5.851000000     4.474000000
H     3.270000000     6.807000000     4.451000000
H     3.069000000     5.597000000     3.564000000
