161
-3047.53306
C     0.423000000     0.569000000     1.249000000
H     0.786000000     0.872000000     2.228000000
C     1.276000000    -0.115000000     0.344000000
H     2.347000000    -0.214000000     0.503000000
C     0.708000000    -0.595000000    -0.849000000
C     1.551000000    -1.335000000    -1.783000000
H     2.623000000    -1.207000000    -1.620000000
H     1.351000000    -2.405000000    -1.690000000
H     1.394000000    -0.934000000    -2.787000000
C    -0.604000000    -0.320000000    -1.112000000
H    -1.001000000    -0.663000000    -2.064000000
C    -1.389000000     0.413000000    -0.218000000
H    -2.449000000     0.476000000    -0.450000000
C    -0.904000000     0.803000000     1.019000000
C    -1.771000000     1.471000000     2.099000000
O    -3.010000000     1.316000000     1.960000000
O    -1.324000000     1.876000000     3.163000000
O     1.851000000     3.014000000    -0.397000000
H     1.172000000     3.665000000    -0.222000000
H     1.408000000     2.172000000    -0.294000000
O    -3.962000000    -2.361000000    -2.383000000
H    -3.787000000    -3.299000000    -2.452000000
H    -3.259000000    -2.027000000    -1.826000000
O     4.873000000    -1.190000000     0.396000000
H     4.734000000    -0.920000000    -0.511000000
H     4.907000000    -0.370000000     0.888000000
O     7.550000000    -1.182000000    -1.399000000
H     6.613000000    -1.100000000    -1.223000000
H     7.624000000    -1.102000000    -2.350000000
O    -0.297000000    -3.276000000    -3.457000000
H    -0.295000000    -3.143000000    -2.509000000
H    -0.821000000    -2.551000000    -3.799000000
O    -4.098000000    -4.532000000     0.627000000
H    -4.601000000    -3.783000000     0.307000000
H    -3.786000000    -4.968000000    -0.166000000
O    -5.398000000     0.955000000    -3.854000000
H    -5.665000000     1.674000000    -4.427000000
H    -4.650000000     1.301000000    -3.367000000
O     0.207000000     3.910000000     3.004000000
H    -0.406000000     3.182000000     3.117000000
H    -0.112000000     4.586000000     3.602000000
O    -0.450000000     1.538000000    -4.705000000
H     0.370000000     1.867000000    -4.337000000
H    -0.991000000     2.318000000    -4.823000000
O    -3.214000000    -1.774000000     2.549000000
H    -3.924000000    -2.185000000     2.056000000
H    -3.223000000    -0.860000000     2.264000000
O     5.982000000     2.349000000    -1.135000000
H     5.494000000     3.070000000    -0.737000000
H     6.450000000     1.944000000    -0.405000000
O    -2.977000000     1.083000000    -6.192000000
H    -3.208000000     0.453000000    -5.510000000
H    -2.027000000     1.181000000    -6.117000000
O    -2.981000000     1.966000000    -2.887000000
H    -2.672000000     2.699000000    -3.418000000
H    -2.195000000     1.642000000    -2.446000000
O    -4.968000000     3.187000000     1.789000000
H    -4.282000000     2.548000000     1.980000000
H    -4.807000000     3.903000000     2.404000000
O     1.319000000     4.095000000     7.018000000
H     1.470000000     3.861000000     7.934000000
H     0.376000000     4.250000000     6.963000000
O    -6.757000000     2.636000000    -0.164000000
H    -5.975000000     2.749000000     0.376000000
H    -7.480000000     2.622000000     0.463000000
O    -2.864000000     2.515000000     5.251000000
H    -2.186000000     2.354000000     4.594000000
H    -3.642000000     2.077000000     4.905000000
O    -1.823000000    -1.265000000     5.255000000
H    -2.127000000    -1.185000000     4.351000000
H    -2.559000000    -1.662000000     5.720000000
O     3.249000000     3.274000000     3.013000000
H     2.385000000     3.684000000     2.963000000
H     3.091000000     2.435000000     3.445000000
O     3.754000000    -3.634000000     0.291000000
H     3.710000000    -3.871000000    -0.635000000
H     4.272000000    -2.829000000     0.307000000
O    -1.372000000     5.732000000     4.162000000
H    -1.914000000     5.621000000     4.944000000
H    -0.713000000     6.377000000     4.417000000
O     3.568000000    -0.355000000    -4.416000000
H     4.207000000     0.001000000    -5.033000000
H     2.833000000    -0.630000000    -4.965000000
O     5.202000000    -1.248000000     4.830000000
H     4.292000000    -1.521000000     4.713000000
H     5.710000000    -1.888000000     4.332000000
O     1.228000000    -5.672000000    -3.471000000
H     0.532000000    -5.042000000    -3.285000000
H     0.778000000    -6.414000000    -3.876000000
O     4.244000000     1.475000000     1.075000000
H     5.176000000     1.497000000     1.291000000
H     3.946000000     2.375000000     1.204000000
O     0.206000000     0.510000000     4.939000000
H    -0.376000000    -0.115000000     5.372000000
H    -0.370000000     1.021000000     4.371000000
O    -3.946000000    -1.372000000    -5.020000000
H    -4.807000000    -1.063000000    -5.299000000
H    -4.070000000    -1.639000000    -4.109000000
O    -0.158000000     4.793000000     0.280000000
H    -0.702000000     5.579000000     0.337000000
H    -0.225000000     4.392000000     1.146000000
O    -0.359000000    -2.923000000     1.618000000
H    -0.928000000    -3.648000000     1.358000000
H    -0.568000000    -2.222000000     1.001000000
O     2.703000000     1.595000000     5.172000000
H     2.643000000     2.446000000     5.607000000
H     1.841000000     1.200000000     5.299000000
O     2.258000000    -3.010000000     2.446000000
H     1.345000000    -2.967000000     2.162000000
H     2.748000000    -3.206000000     1.648000000
O     1.983000000    -1.059000000    -7.989000000
H     1.522000000    -1.734000000    -8.487000000
H     1.899000000    -1.335000000    -7.077000000
O     2.338000000    -1.624000000     4.801000000
H     1.734000000    -0.886000000     4.712000000
H     2.343000000    -2.036000000     3.938000000
O    -6.202000000     0.319000000    -1.454000000
H    -5.940000000     0.550000000    -2.345000000
H    -6.257000000     1.157000000    -0.995000000
O     5.213000000    -0.400000000    -2.272000000
H     5.273000000     0.542000000    -2.109000000
H     4.601000000    -0.477000000    -3.004000000
O    -0.140000000     0.570000000    -7.089000000
H     0.746000000     0.289000000    -7.318000000
H    -0.036000000     1.044000000    -6.264000000
O    -5.846000000    -2.483000000     0.175000000
H    -5.550000000    -1.658000000    -0.209000000
H    -6.754000000    -2.570000000    -0.116000000
O    -1.627000000     4.062000000     7.263000000
H    -1.584000000     3.280000000     7.814000000
H    -2.275000000     3.848000000     6.593000000
O     1.338000000    -2.078000000    -5.595000000
H     0.839000000    -1.786000000    -4.832000000
H     1.029000000    -2.969000000    -5.756000000
O    -1.537000000    -4.509000000    -1.018000000
H    -1.667000000    -5.346000000    -0.572000000
H    -1.957000000    -4.624000000    -1.871000000
O     4.270000000    -3.388000000    -4.440000000
H     3.849000000    -2.538000000    -4.308000000
H     3.844000000    -3.747000000    -5.218000000
O     1.829000000     2.463000000    -3.877000000
H     2.393000000     3.206000000    -3.659000000
H     2.155000000     1.747000000    -3.332000000
O    -5.978000000     0.944000000     6.565000000
H    -6.669000000     1.099000000     5.920000000
H    -5.299000000     0.476000000     6.079000000
O    -1.468000000    -1.025000000    -4.329000000
H    -1.172000000    -0.136000000    -4.525000000
H    -2.422000000    -0.980000000    -4.399000000
O    -7.050000000    -2.454000000     3.025000000
H    -7.821000000    -2.018000000     2.661000000
H    -6.323000000    -1.865000000     2.820000000
O    -4.426000000     0.654000000     4.086000000
H    -3.941000000     0.864000000     3.289000000
H    -5.346000000     0.734000000     3.835000000
O     4.339000000     4.250000000    -0.423000000
H     3.603000000     3.639000000    -0.469000000
H     4.119000000     4.836000000     0.302000000
O     3.471000000    -4.838000000    -2.293000000
H     2.542000000    -4.904000000    -2.516000000
H     3.881000000    -4.477000000    -3.079000000
