161
-3015.84077
C     0.434000000     1.388000000    -0.247000000
H     0.836000000     2.356000000    -0.532000000
C     0.950000000     0.221000000    -0.919000000
H     1.820000000     0.323000000    -1.562000000
C     0.380000000    -1.012000000    -0.662000000
C     0.916000000    -2.331000000    -1.225000000
H     2.005000000    -2.393000000    -1.277000000
H     0.588000000    -3.189000000    -0.634000000
H     0.435000000    -2.585000000    -2.172000000
C    -0.657000000    -1.017000000     0.329000000
H    -1.071000000    -1.990000000     0.581000000
C    -1.057000000     0.108000000     1.036000000
H    -1.778000000     0.116000000     1.849000000
C    -0.558000000     1.339000000     0.706000000
C    -0.921000000     2.544000000     1.475000000
O    -1.947000000     2.514000000     2.118000000
O    -0.378000000     3.611000000     1.135000000
O    -1.309000000     5.133000000     3.347000000
H    -1.451000000     5.910000000     2.806000000
H    -1.368000000     4.400000000     2.735000000
O     0.565000000    -0.629000000    -6.030000000
H     1.286000000    -1.030000000    -6.515000000
H    -0.042000000    -0.331000000    -6.707000000
O    -0.871000000    -7.807000000    -0.197000000
H    -1.792000000    -7.662000000    -0.410000000
H    -0.453000000    -6.959000000    -0.351000000
O     5.752000000     0.958000000    -4.636000000
H     6.253000000     1.032000000    -3.824000000
H     4.905000000     1.356000000    -4.433000000
O    -5.585000000    -4.614000000     1.951000000
H    -5.746000000    -3.846000000     2.500000000
H    -4.632000000    -4.667000000     1.886000000
O     2.348000000     3.634000000     1.937000000
H     1.451000000     3.580000000     1.607000000
H     2.602000000     4.545000000     1.793000000
O     2.163000000     0.048000000     1.985000000
H     1.658000000     0.353000000     1.231000000
H     1.536000000     0.045000000     2.708000000
O     6.077000000    -3.402000000    -2.604000000
H     5.787000000    -4.312000000    -2.540000000
H     5.268000000    -2.891000000    -2.578000000
O     1.117000000     3.809000000     4.472000000
H     1.515000000     3.336000000     3.741000000
H     0.256000000     4.073000000     4.148000000
O    -3.424000000     3.659000000     0.176000000
H    -3.349000000     4.613000000     0.200000000
H    -2.947000000     3.362000000     0.951000000
O    -3.890000000     6.304000000     0.455000000
H    -4.242000000     6.410000000     1.339000000
H    -4.560000000     6.682000000    -0.116000000
O    -3.135000000     4.686000000     5.749000000
H    -4.067000000     4.733000000     5.538000000
H    -2.695000000     4.695000000     4.899000000
O    -5.186000000    -0.880000000     0.814000000
H    -6.134000000    -0.967000000     0.713000000
H    -5.031000000     0.064000000     0.813000000
O    -0.084000000     1.897000000    -5.002000000
H     0.135000000     1.066000000    -5.424000000
H    -0.868000000     1.705000000    -4.489000000
O     3.899000000    -4.393000000    -0.861000000
H     4.688000000    -4.932000000    -0.910000000
H     3.345000000    -4.714000000    -1.572000000
O    -3.310000000     1.998000000     6.740000000
H    -3.354000000     2.945000000     6.605000000
H    -3.975000000     1.820000000     7.405000000
O    -3.114000000    -4.594000000     4.747000000
H    -3.135000000    -4.824000000     3.818000000
H    -3.046000000    -5.434000000     5.201000000
O    -4.231000000     2.122000000    -1.957000000
H    -4.045000000     2.770000000    -1.277000000
H    -4.904000000     1.560000000    -1.574000000
O     5.070000000     2.741000000     2.401000000
H     4.114000000     2.769000000     2.431000000
H     5.302000000     1.958000000     2.902000000
O    -1.253000000    -2.631000000    -5.002000000
H    -0.575000000    -1.968000000    -5.131000000
H    -2.056000000    -2.129000000    -4.861000000
O    -1.052000000    -4.913000000    -6.317000000
H    -0.361000000    -5.485000000    -5.983000000
H    -0.999000000    -4.129000000    -5.770000000
O     3.504000000    -1.793000000    -4.277000000
H     2.867000000    -2.437000000    -3.968000000
H     3.465000000    -1.855000000    -5.231000000
O    -1.692000000     7.643000000     2.138000000
H    -1.160000000     8.381000000     2.434000000
H    -1.393000000     7.475000000     1.244000000
O     2.729000000    -5.242000000    -3.214000000
H     3.631000000    -5.561000000    -3.198000000
H     2.363000000    -5.598000000    -4.023000000
O     0.705000000     6.752000000    -2.863000000
H     0.151000000     6.160000000    -2.354000000
H     1.337000000     7.093000000    -2.230000000
O     3.414000000     5.871000000     0.875000000
H     4.048000000     6.370000000     1.390000000
H     2.806000000     6.529000000     0.539000000
O    -1.426000000    -2.511000000     5.217000000
H    -1.910000000    -3.323000000     5.063000000
H    -0.519000000    -2.793000000     5.337000000
O     0.215000000    -5.565000000    -1.721000000
H     1.008000000    -5.628000000    -2.255000000
H    -0.436000000    -5.179000000    -2.306000000
O    -4.632000000    -1.953000000    -2.253000000
H    -4.618000000    -2.045000000    -1.300000000
H    -5.411000000    -2.437000000    -2.528000000
O     2.090000000    -6.262000000     0.123000000
H     1.322000000    -5.906000000    -0.325000000
H     2.733000000    -5.553000000     0.095000000
O    -2.769000000    -4.376000000    -3.359000000
H    -2.538000000    -3.935000000    -4.176000000
H    -3.059000000    -3.671000000    -2.780000000
O     4.145000000     3.855000000    -1.110000000
H     3.316000000     4.004000000    -1.564000000
H     3.918000000     3.882000000    -0.180000000
O     0.065000000    -0.387000000     3.887000000
H    -0.523000000    -1.134000000     3.772000000
H    -0.313000000     0.104000000     4.617000000
O    -0.195000000    -5.551000000     2.249000000
H     0.244000000    -6.311000000     1.866000000
H     0.464000000    -4.858000000     2.227000000
O    -3.857000000    -1.071000000     5.666000000
H    -3.190000000    -1.756000000     5.703000000
H    -3.599000000    -0.526000000     4.922000000
O     3.057000000     1.755000000    -4.098000000
H     2.706000000     2.530000000    -3.659000000
H     2.536000000     1.029000000    -3.755000000
O    -2.849000000    -5.320000000     2.169000000
H    -1.928000000    -5.456000000     2.392000000
H    -2.957000000    -5.756000000     1.324000000
O     5.956000000     1.510000000    -1.645000000
H     5.310000000     0.817000000    -1.511000000
H     5.463000000     2.323000000    -1.533000000
O    -0.897000000     4.653000000    -1.499000000
H    -1.715000000     4.198000000    -1.701000000
H    -0.838000000     4.626000000    -0.544000000
O    -2.682000000     1.011000000     4.136000000
H    -2.827000000     1.493000000     4.950000000
H    -2.473000000     1.686000000     3.491000000
O    -5.924000000     3.552000000     1.968000000
H    -5.215000000     3.574000000     1.324000000
H    -5.980000000     4.450000000     2.294000000
O     4.429000000    -0.022000000     0.060000000
H     5.200000000    -0.094000000     0.623000000
H     3.705000000     0.143000000     0.664000000
O     2.109000000    -3.822000000     2.755000000
H     1.508000000    -3.169000000     3.114000000
H     2.919000000    -3.338000000     2.594000000
O    -1.032000000     0.131000000     6.579000000
H    -1.569000000    -0.630000000     6.355000000
H    -1.655000000     0.770000000     6.925000000
O     1.325000000    -5.929000000    -5.426000000
H     1.782000000    -5.384000000    -6.068000000
H     1.171000000    -6.756000000    -5.882000000
O    -5.240000000     1.731000000     4.084000000
H    -4.384000000     1.313000000     3.995000000
H    -5.288000000     2.339000000     3.345000000
O     4.070000000    -2.578000000     1.348000000
H     3.870000000    -3.334000000     0.796000000
H     3.960000000    -1.823000000     0.770000000
O     1.789000000     3.984000000    -3.109000000
H     1.846000000     4.753000000    -3.676000000
H     0.864000000     3.931000000    -2.868000000
