161
-3004.09475
C     1.419000000    -0.436000000    -0.043000000
H     2.454000000    -0.729000000    -0.204000000
C     0.990000000     0.799000000    -0.500000000
H     1.699000000     1.487000000    -0.954000000
C    -0.373000000     1.142000000    -0.339000000
C    -0.973000000     2.381000000    -1.012000000
H    -1.721000000     2.136000000    -1.769000000
H    -1.370000000     3.117000000    -0.310000000
H    -0.190000000     2.817000000    -1.637000000
C    -1.260000000     0.251000000     0.309000000
H    -2.336000000     0.404000000     0.289000000
C    -0.741000000    -0.937000000     0.838000000
H    -1.435000000    -1.642000000     1.287000000
C     0.602000000    -1.331000000     0.620000000
C     0.970000000    -2.737000000     1.087000000
O     0.149000000    -3.558000000     1.497000000
O     2.108000000    -3.167000000     0.833000000
O    -0.955000000    -6.555000000     4.790000000
H    -1.366000000    -7.044000000     5.503000000
H    -1.687000000    -6.258000000     4.250000000
O     1.412000000     2.159000000    -4.617000000
H     0.767000000     2.746000000    -4.225000000
H     1.334000000     2.311000000    -5.559000000
O    -3.203000000    -5.679000000    -0.776000000
H    -4.054000000    -5.425000000    -0.419000000
H    -2.622000000    -4.952000000    -0.552000000
O    -1.131000000    -1.721000000    -2.372000000
H    -0.565000000    -1.178000000    -2.921000000
H    -1.197000000    -1.242000000    -1.547000000
O    -5.591000000     5.171000000    -2.058000000
H    -6.534000000     5.075000000    -1.925000000
H    -5.211000000     5.033000000    -1.190000000
O     0.070000000    -3.805000000     4.365000000
H     0.081000000    -3.796000000     3.408000000
H    -0.287000000    -4.664000000     4.592000000
O     3.985000000    -1.406000000     2.048000000
H     4.448000000    -1.001000000     1.315000000
H     3.730000000    -2.269000000     1.722000000
O     4.400000000    -6.726000000     3.107000000
H     3.868000000    -5.968000000     2.866000000
H     3.979000000    -7.464000000     2.665000000
O    -1.680000000     1.683000000     4.268000000
H    -1.607000000     1.319000000     5.150000000
H    -1.091000000     2.438000000     4.271000000
O     3.191000000    -2.522000000     4.385000000
H     2.406000000    -1.975000000     4.364000000
H     3.723000000    -2.207000000     3.655000000
O    -1.323000000    -3.821000000    -0.609000000
H    -0.753000000    -3.813000000     0.159000000
H    -0.812000000    -3.386000000    -1.291000000
O    -6.358000000     1.930000000    -4.674000000
H    -5.720000000     1.251000000    -4.454000000
H    -6.618000000     1.732000000    -5.574000000
O     2.044000000    -7.922000000    -1.861000000
H     2.324000000    -7.107000000    -1.444000000
H     2.824000000    -8.477000000    -1.849000000
O     5.958000000     0.974000000    -2.027000000
H     6.444000000     0.521000000    -2.716000000
H     5.330000000     1.523000000    -2.499000000
O    -0.553000000     4.607000000    -4.519000000
H     0.087000000     5.209000000    -4.900000000
H    -1.145000000     4.398000000    -5.242000000
O     2.586000000    -4.825000000     2.804000000
H     2.046000000    -4.287000000     2.226000000
H     2.938000000    -4.208000000     3.446000000
O    -1.186000000    -8.467000000    -0.677000000
H    -0.624000000    -7.746000000    -0.393000000
H    -1.401000000    -8.260000000    -1.586000000
O    -4.136000000     1.942000000     3.006000000
H    -3.207000000     1.815000000     3.197000000
H    -4.392000000     1.152000000     2.529000000
O     6.353000000     2.698000000    -0.018000000
H     7.000000000     3.307000000    -0.373000000
H     6.198000000     2.073000000    -0.727000000
O     0.228000000    -5.446000000    -3.363000000
H    -0.198000000    -6.260000000    -3.631000000
H    -0.272000000    -5.153000000    -2.602000000
O     3.867000000     3.343000000    -2.867000000
H     4.069000000     4.161000000    -3.321000000
H     3.309000000     2.862000000    -3.478000000
O     1.558000000    -1.114000000    -3.799000000
H     1.878000000    -1.978000000    -3.541000000
H     2.297000000    -0.712000000    -4.256000000
O    -1.170000000    -1.996000000     6.884000000
H    -0.902000000    -2.498000000     6.114000000
H    -0.868000000    -2.518000000     7.627000000
O     5.739000000    -4.614000000     1.533000000
H     5.504000000    -4.671000000     0.607000000
H     5.638000000    -5.507000000     1.862000000
O    -2.783000000    -3.406000000    -3.654000000
H    -2.456000000    -2.776000000    -3.012000000
H    -3.006000000    -4.180000000    -3.138000000
O    -3.868000000    -1.047000000     5.373000000
H    -3.285000000    -0.584000000     5.974000000
H    -4.621000000    -0.464000000     5.272000000
O     3.729000000    -2.417000000    -1.239000000
H     3.362000000    -3.086000000    -1.818000000
H     3.310000000    -2.576000000    -0.393000000
O    -3.985000000     4.662000000     0.006000000
H    -4.002000000     5.474000000     0.512000000
H    -3.076000000     4.367000000     0.055000000
O     1.943000000    -4.007000000     6.339000000
H     2.607000000    -3.435000000     5.955000000
H     1.281000000    -4.099000000     5.653000000
O     1.708000000     5.853000000    -2.698000000
H     1.438000000     5.566000000    -3.570000000
H     2.578000000     6.230000000    -2.828000000
O     2.745000000    -5.594000000    -0.218000000
H     3.645000000    -5.531000000    -0.541000000
H     2.565000000    -4.733000000     0.158000000
O    -5.536000000     4.203000000     2.895000000
H    -4.982000000     3.429000000     2.794000000
H    -5.077000000     4.890000000     2.412000000
O     1.480000000    -8.124000000     2.813000000
H     0.857000000    -7.594000000     2.315000000
H     1.408000000    -7.798000000     3.710000000
O     5.320000000    -4.808000000    -1.230000000
H     5.995000000    -4.301000000    -1.679000000
H     5.099000000    -5.509000000    -1.843000000
O     0.151000000    -6.160000000     0.718000000
H     1.071000000    -6.068000000     0.472000000
H    -0.113000000    -5.282000000     0.993000000
O     2.302000000    -3.786000000    -2.841000000
H     2.463000000    -4.522000000    -3.431000000
H     1.407000000    -3.919000000    -2.531000000
O    -5.121000000    -2.288000000    -1.978000000
H    -6.070000000    -2.401000000    -1.922000000
H    -4.802000000    -2.504000000    -1.102000000
O     4.166000000     2.266000000     1.817000000
H     4.836000000     2.603000000     1.223000000
H     3.337000000     2.454000000     1.376000000
O     5.683000000    -0.975000000    -0.022000000
H     5.881000000    -0.097000000    -0.348000000
H     5.023000000    -1.312000000    -0.627000000
O    -4.261000000    -2.793000000     3.172000000
H    -3.927000000    -2.025000000     3.636000000
H    -5.154000000    -2.554000000     2.924000000
O    -1.056000000     7.174000000    -2.902000000
H    -0.453000000     7.420000000    -2.201000000
H    -0.822000000     6.270000000    -3.113000000
O    -4.851000000    -0.147000000     1.280000000
H    -5.703000000    -0.300000000     0.871000000
H    -4.321000000    -0.900000000     1.017000000
O    -3.289000000    -5.372000000     3.713000000
H    -3.718000000    -5.773000000     4.469000000
H    -3.708000000    -4.516000000     3.626000000
O     0.901000000    -0.761000000     4.490000000
H     0.050000000    -1.197000000     4.535000000
H     0.872000000    -0.264000000     3.672000000
O     3.214000000     4.300000000    -0.180000000
H     2.317000000     4.630000000    -0.241000000
H     3.447000000     4.073000000    -1.080000000
O    -1.204000000     6.154000000     2.857000000
H    -2.082000000     5.787000000     2.955000000
H    -0.656000000     5.623000000     3.434000000
O    -3.964000000    -7.233000000     1.293000000
H    -3.340000000    -6.594000000     1.637000000
H    -4.072000000    -6.992000000     0.373000000
O    -3.738000000    -2.953000000     0.384000000
H    -2.940000000    -3.421000000     0.138000000
H    -3.761000000    -3.004000000     1.339000000
