161
-3051.55593
C     1.145000000     0.653000000     0.695000000
H     2.096000000     1.100000000     0.969000000
C     0.776000000     0.728000000    -0.662000000
H     1.408000000     1.312000000    -1.326000000
C    -0.268000000    -0.031000000    -1.258000000
C    -0.450000000     0.146000000    -2.707000000
H    -0.407000000     1.233000000    -2.793000000
H     0.254000000    -0.448000000    -3.294000000
H    -1.445000000    -0.183000000    -3.015000000
C    -1.073000000    -0.790000000    -0.365000000
H    -1.987000000    -1.227000000    -0.761000000
C    -0.742000000    -0.852000000     0.988000000
H    -1.326000000    -1.318000000     1.777000000
C     0.303000000    -0.115000000     1.508000000
C     0.548000000    -0.107000000     3.003000000
O    -0.467000000    -0.217000000     3.741000000
O     1.628000000     0.123000000     3.505000000
O    -1.235000000     5.897000000    -4.401000000
H    -0.567000000     6.154000000    -3.766000000
H    -1.589000000     5.077000000    -4.057000000
O    -2.158000000     3.877000000     3.498000000
H    -1.293000000     3.734000000     3.881000000
H    -2.662000000     4.297000000     4.195000000
O    -1.749000000    -6.537000000    -1.864000000
H    -0.988000000    -6.415000000    -2.432000000
H    -1.867000000    -5.688000000    -1.437000000
O     4.156000000     0.864000000     4.610000000
H     4.288000000     1.096000000     3.690000000
H     3.227000000     0.644000000     4.670000000
O     3.030000000    -2.000000000     3.986000000
H     2.615000000    -2.583000000     3.351000000
H     2.509000000    -1.197000000     3.949000000
O     0.572000000     0.626000000     6.119000000
H     0.650000000     0.190000000     5.271000000
H    -0.189000000     0.216000000     6.530000000
O     3.461000000    -3.079000000     7.016000000
H     3.046000000    -2.476000000     7.632000000
H     3.537000000    -2.577000000     6.204000000
O     2.535000000     4.472000000    -0.507000000
H     1.794000000     4.267000000     0.062000000
H     3.204000000     4.817000000     0.085000000
O    -1.198000000     1.917000000    -6.065000000
H    -1.037000000     0.985000000    -6.214000000
H    -2.088000000     2.061000000    -6.387000000
O     2.822000000     0.737000000    -4.176000000
H     2.521000000     1.602000000    -3.898000000
H     3.100000000     0.309000000    -3.366000000
O    -1.263000000    -2.420000000     5.340000000
H    -0.951000000    -1.924000000     4.583000000
H    -0.564000000    -3.050000000     5.516000000
O     0.955000000    -4.897000000     3.846000000
H     1.676000000    -5.242000000     4.373000000
H     0.320000000    -4.579000000     4.488000000
O    -2.236000000     2.154000000     0.824000000
H    -2.207000000     2.984000000     0.348000000
H    -1.564000000     1.615000000     0.406000000
O    -4.137000000     1.586000000     2.676000000
H    -3.350000000     1.940000000     2.262000000
H    -4.789000000     1.567000000     1.976000000
O    -1.179000000    -3.797000000    -3.675000000
H    -1.066000000    -3.769000000    -4.625000000
H    -1.944000000    -3.246000000    -3.508000000
O     1.666000000    -3.414000000     1.703000000
H     1.587000000    -4.001000000     2.455000000
H     0.973000000    -3.695000000     1.106000000
O     3.292000000     5.384000000     2.216000000
H     3.627000000     6.189000000     1.821000000
H     2.851000000     5.675000000     3.014000000
O    -1.120000000    -1.011000000    -6.786000000
H    -1.333000000    -1.719000000    -6.178000000
H    -1.589000000    -1.235000000    -7.589000000
O    -2.282000000     3.636000000    -3.222000000
H    -2.206000000     2.950000000    -3.886000000
H    -2.964000000     3.321000000    -2.629000000
O     5.384000000     3.354000000    -0.229000000
H     5.878000000     3.976000000    -0.763000000
H     4.542000000     3.269000000    -0.676000000
O     2.278000000    -4.452000000    -4.799000000
H     2.291000000    -3.495000000    -4.807000000
H     2.197000000    -4.699000000    -5.720000000
O     0.590000000    -5.568000000    -2.989000000
H    -0.057000000    -4.880000000    -3.140000000
H     1.241000000    -5.441000000    -3.678000000
O    -1.787000000     3.218000000     6.534000000
H    -1.746000000     2.511000000     5.890000000
H    -2.618000000     3.658000000     6.353000000
O    -4.991000000    -1.189000000     3.224000000
H    -5.795000000    -1.061000000     3.728000000
H    -4.640000000    -0.306000000     3.106000000
O    -3.149000000    -3.818000000    -0.518000000
H    -3.526000000    -3.329000000    -1.249000000
H    -3.796000000    -3.740000000     0.183000000
O     1.046000000     2.937000000     4.229000000
H     1.081000000     2.130000000     4.743000000
H     1.247000000     2.660000000     3.335000000
O     0.448000000     4.391000000     1.356000000
H    -0.085000000     3.710000000     1.765000000
H     0.254000000     5.182000000     1.859000000
O     2.631000000     4.914000000     5.155000000
H     2.213000000     4.201000000     4.672000000
H     2.057000000     5.064000000     5.906000000
O    -1.376000000    -0.632000000     7.253000000
H    -2.168000000    -0.106000000     7.144000000
H    -1.565000000    -1.447000000     6.788000000
O    -0.176000000    -3.819000000    -0.002000000
H    -0.155000000    -3.122000000    -0.658000000
H    -1.074000000    -3.808000000     0.330000000
O    -3.025000000    -3.919000000     7.024000000
H    -2.614000000    -3.296000000     6.425000000
H    -3.895000000    -3.555000000     7.188000000
O    -3.510000000    -1.863000000    -3.789000000
H    -4.268000000    -2.378000000    -3.511000000
H    -3.838000000    -1.325000000    -4.509000000
O     1.212000000     3.014000000    -4.814000000
H     0.891000000     3.665000000    -4.190000000
H     0.431000000     2.730000000    -5.288000000
O     3.288000000     2.630000000     6.962000000
H     3.475000000     1.867000000     6.416000000
H     2.882000000     3.258000000     6.365000000
O     4.903000000     0.591000000     1.389000000
H     5.634000000     0.109000000     1.774000000
H     5.260000000     1.459000000     1.201000000
O     3.630000000    -2.161000000     0.343000000
H     4.123000000    -1.738000000     1.046000000
H     2.948000000    -2.658000000     0.794000000
O     2.154000000    -1.754000000    -5.367000000
H     2.621000000    -1.145000000    -4.794000000
H     1.650000000    -1.191000000    -5.955000000
O    -1.487000000     4.517000000    -0.626000000
H    -1.406000000     4.328000000    -1.561000000
H    -0.589000000     4.678000000    -0.336000000
O    -2.651000000     0.983000000     4.845000000
H    -3.106000000     1.336000000     4.080000000
H    -1.944000000     0.452000000     4.479000000
O    -4.180000000     0.322000000     6.933000000
H    -3.676000000     0.671000000     6.198000000
H    -5.018000000     0.783000000     6.889000000
O     5.468000000    -2.001000000     2.649000000
H     4.824000000    -1.596000000     3.230000000
H     6.266000000    -2.051000000     3.175000000
O     5.444000000     3.512000000     2.384000000
H     5.585000000     3.502000000     1.438000000
H     4.661000000     4.049000000     2.504000000
O     3.965000000    -0.125000000    -1.504000000
H     3.679000000    -0.644000000    -0.752000000
H     4.919000000    -0.100000000    -1.429000000
O    -6.155000000    -2.329000000     0.740000000
H    -5.692000000    -2.119000000     1.551000000
H    -6.629000000    -3.137000000     0.937000000
O    -5.311000000    -3.650000000    -2.712000000
H    -6.087000000    -3.614000000    -2.154000000
H    -5.087000000    -4.580000000    -2.752000000
O     2.023000000    -0.852000000     8.487000000
H     1.637000000    -0.270000000     7.833000000
H     1.303000000    -1.050000000     9.087000000
O    -3.425000000    -3.351000000     3.844000000
H    -4.053000000    -2.629000000     3.851000000
H    -2.602000000    -2.956000000     4.130000000
O     0.997000000     5.031000000    -2.488000000
H     1.192000000     5.892000000    -2.857000000
H     1.773000000     4.809000000    -1.973000000
