161
-3021.44699
C     1.279000000    -0.495000000     0.630000000
H     2.173000000    -0.676000000     1.221000000
C     0.962000000     0.827000000     0.282000000
H     1.613000000     1.576000000     0.725000000
C    -0.187000000     1.179000000    -0.340000000
C    -0.669000000     2.569000000    -0.482000000
H    -0.229000000     3.235000000     0.263000000
H    -0.428000000     2.876000000    -1.502000000
H    -1.732000000     2.698000000    -0.268000000
C    -1.098000000     0.198000000    -0.717000000
H    -2.060000000     0.497000000    -1.125000000
C    -0.777000000    -1.142000000    -0.466000000
H    -1.475000000    -1.932000000    -0.728000000
C     0.389000000    -1.497000000     0.225000000
C     0.718000000    -2.995000000     0.591000000
O    -0.233000000    -3.747000000     0.470000000
O     1.758000000    -3.178000000     1.216000000
O    -0.313000000    -6.374000000     1.411000000
H    -0.271000000    -5.431000000     1.250000000
H    -0.235000000    -6.769000000     0.543000000
O     1.875000000     5.787000000    -4.151000000
H     2.745000000     6.180000000    -4.088000000
H     1.634000000     5.883000000    -5.072000000
O    -4.728000000    -5.417000000    -1.160000000
H    -3.901000000    -4.988000000    -1.379000000
H    -5.363000000    -4.702000000    -1.110000000
O     4.550000000    -2.321000000     4.235000000
H     4.995000000    -2.492000000     3.405000000
H     3.622000000    -2.281000000     4.005000000
O     0.314000000     4.608000000     4.086000000
H     1.251000000     4.796000000     4.146000000
H     0.004000000     5.162000000     3.370000000
O     5.315000000    -5.019000000     3.377000000
H     4.905000000    -4.927000000     2.517000000
H     5.978000000    -4.329000000     3.401000000
O     3.916000000    -2.768000000     0.139000000
H     3.085000000    -2.851000000     0.606000000
H     3.714000000    -2.210000000    -0.612000000
O     0.840000000    -1.716000000    -3.092000000
H     0.808000000    -2.221000000    -3.904000000
H    -0.016000000    -1.290000000    -3.042000000
O    -1.578000000     0.361000000     2.518000000
H    -0.830000000     0.057000000     2.003000000
H    -1.503000000    -0.110000000     3.348000000
O     3.604000000     3.648000000    -0.799000000
H     3.432000000     4.578000000    -0.945000000
H     3.252000000     3.474000000     0.074000000
O     6.697000000    -2.673000000    -0.644000000
H     5.877000000    -3.151000000    -0.516000000
H     6.465000000    -1.756000000    -0.496000000
O    -4.431000000     3.081000000    -2.966000000
H    -4.550000000     3.108000000    -2.017000000
H    -4.223000000     3.984000000    -3.208000000
O     3.458000000     1.199000000     3.310000000
H     3.642000000     1.952000000     2.749000000
H     3.606000000     0.439000000     2.747000000
O    -0.358000000    -3.838000000     4.718000000
H    -0.896000000    -3.577000000     3.971000000
H    -0.919000000    -3.692000000     5.480000000
O    -1.314000000     3.512000000    -4.131000000
H    -0.649000000     4.182000000    -3.974000000
H    -2.089000000     3.830000000    -3.669000000
O     0.618000000    -6.216000000     4.381000000
H     1.060000000    -6.200000000     3.532000000
H     0.190000000    -5.361000000     4.444000000
O     2.509000000    -6.060000000     1.980000000
H     2.259000000    -5.224000000     1.586000000
H     3.395000000    -6.222000000     1.656000000
O    -2.489000000     6.678000000     0.472000000
H    -3.125000000     6.469000000     1.156000000
H    -2.816000000     7.488000000     0.081000000
O    -0.554000000     6.150000000    -3.350000000
H     0.376000000     6.139000000    -3.578000000
H    -0.700000000     7.021000000    -2.983000000
O    -5.563000000     2.864000000    -0.209000000
H    -5.060000000     2.387000000     0.452000000
H    -6.292000000     3.250000000     0.276000000
O    -3.803000000    -5.027000000     4.012000000
H    -4.209000000    -4.358000000     4.563000000
H    -3.228000000    -4.536000000     3.424000000
O    -0.410000000    -4.647000000    -2.126000000
H    -0.649000000    -4.212000000    -1.307000000
H    -0.106000000    -5.514000000    -1.856000000
O     3.082000000    -0.141000000    -2.113000000
H     2.349000000    -0.591000000    -2.533000000
H     2.737000000     0.724000000    -1.891000000
O    -0.042000000     0.904000000    -4.638000000
H    -0.348000000     1.735000000    -4.273000000
H     0.908000000     1.007000000    -4.703000000
O    -2.960000000    -5.899000000    -3.683000000
H    -2.778000000    -4.986000000    -3.459000000
H    -3.617000000    -6.175000000    -3.045000000
O    -2.042000000    -3.454000000     2.556000000
H    -1.502000000    -3.827000000     1.859000000
H    -2.406000000    -2.655000000     2.176000000
O     2.014000000    -0.055000000     5.207000000
H     1.819000000    -0.854000000     4.717000000
H     2.497000000     0.493000000     4.589000000
O    -3.147000000    -3.382000000    -2.773000000
H    -3.408000000    -3.044000000    -1.916000000
H    -2.324000000    -2.934000000    -2.967000000
O    -1.654000000    -0.932000000    -3.688000000
H    -2.474000000    -0.532000000    -3.399000000
H    -1.200000000    -0.234000000    -4.159000000
O    -6.270000000    -1.756000000    -3.102000000
H    -5.413000000    -2.183000000    -3.120000000
H    -6.846000000    -2.393000000    -2.680000000
O    -2.204000000     3.937000000     4.685000000
H    -1.430000000     4.360000000     4.312000000
H    -1.922000000     3.646000000     5.553000000
O     5.676000000    -0.130000000    -1.204000000
H     4.767000000    -0.419000000    -1.284000000
H     5.902000000     0.194000000    -2.075000000
O     0.363000000     6.738000000     0.628000000
H     0.271000000     6.779000000     1.579000000
H    -0.536000000     6.708000000     0.300000000
O     4.331000000     3.341000000     1.726000000
H     5.229000000     3.399000000     2.052000000
H     3.950000000     4.198000000     1.921000000
O     2.729000000     6.399000000    -0.680000000
H     2.756000000     6.904000000    -1.493000000
H     1.845000000     6.540000000    -0.340000000
O     0.192000000    -7.281000000    -1.288000000
H     0.815000000    -7.686000000    -1.890000000
H    -0.595000000    -7.822000000    -1.357000000
O    -2.530000000    -7.449000000     3.016000000
H    -1.762000000    -6.964000000     2.715000000
H    -3.027000000    -6.814000000     3.532000000
O     4.805000000    -5.445000000     0.569000000
H     4.196000000    -5.479000000    -0.169000000
H     5.608000000    -5.845000000     0.236000000
O    -4.443000000    -0.053000000     0.714000000
H    -3.892000000     0.466000000     1.301000000
H    -5.338000000     0.195000000     0.945000000
O     4.890000000    -0.531000000     1.566000000
H     4.826000000    -1.433000000     1.253000000
H     5.147000000    -0.027000000     0.794000000
O    -0.141000000    -4.575000000    -4.919000000
H     0.678000000    -5.070000000    -4.923000000
H    -0.316000000    -4.409000000    -3.993000000
O    -2.691000000     4.931000000    -1.987000000
H    -1.957000000     5.299000000    -2.480000000
H    -2.573000000     5.266000000    -1.098000000
O    -3.725000000     1.965000000     2.747000000
H    -3.508000000     2.602000000     3.427000000
H    -2.882000000     1.592000000     2.490000000
O     1.709000000    -2.367000000     3.857000000
H     0.885000000    -2.660000000     4.247000000
H     1.667000000    -2.671000000     2.950000000
O     2.207000000     5.397000000     2.008000000
H     2.260000000     5.567000000     1.067000000
H     1.921000000     4.486000000     2.071000000
O    -4.135000000     0.345000000    -2.931000000
H    -4.143000000     1.250000000    -2.621000000
H    -4.988000000    -0.004000000    -2.673000000
O    -1.028000000     6.818000000     3.099000000
H    -1.820000000     6.901000000     2.566000000
H    -0.883000000     7.697000000     3.450000000
O    -3.876000000    -2.503000000    -0.329000000
H    -3.893000000    -1.548000000    -0.257000000
H    -4.639000000    -2.794000000     0.169000000
