161
-3044.41375
C     1.452000000     0.292000000    -0.017000000
H     2.487000000     0.623000000    -0.050000000
C     0.421000000     1.241000000    -0.177000000
H     0.668000000     2.194000000    -0.638000000
C    -0.920000000     0.843000000    -0.161000000
C    -2.028000000     1.749000000    -0.668000000
H    -1.900000000     2.140000000    -1.680000000
H    -3.010000000     1.276000000    -0.602000000
H    -2.169000000     2.569000000     0.039000000
C    -1.223000000    -0.509000000     0.245000000
H    -2.248000000    -0.844000000     0.380000000
C    -0.157000000    -1.362000000     0.466000000
H    -0.453000000    -2.369000000     0.748000000
C     1.177000000    -1.009000000     0.345000000
C     2.310000000    -1.992000000     0.529000000
O     2.081000000    -3.104000000     0.867000000
O     3.504000000    -1.732000000     0.371000000
O    -0.948000000    -3.304000000     3.970000000
H    -1.579000000    -2.689000000     3.598000000
H    -1.485000000    -3.957000000     4.419000000
O    -0.709000000    -2.953000000    -2.651000000
H    -0.046000000    -2.263000000    -2.654000000
H    -0.218000000    -3.757000000    -2.479000000
O    -4.626000000     6.481000000    -0.764000000
H    -5.064000000     5.656000000    -0.975000000
H    -3.761000000     6.402000000    -1.166000000
O     1.545000000    -4.233000000     3.189000000
H     1.610000000    -3.617000000     2.459000000
H     0.730000000    -3.994000000     3.631000000
O     4.784000000     0.165000000     2.276000000
H     5.309000000    -0.634000000     2.233000000
H     4.112000000     0.046000000     1.604000000
O    -3.595000000     3.835000000    -3.941000000
H    -3.270000000     4.203000000    -3.120000000
H    -4.422000000     3.416000000    -3.705000000
O    -3.096000000     5.410000000     1.684000000
H    -2.517000000     6.171000000     1.647000000
H    -3.959000000     5.775000000     1.877000000
O     3.113000000    -1.730000000     5.851000000
H     2.473000000    -2.424000000     6.007000000
H     3.468000000    -1.921000000     4.983000000
O    -1.534000000    -5.638000000     1.893000000
H    -0.937000000    -5.627000000     2.641000000
H    -1.005000000    -5.974000000     1.170000000
O    -6.146000000     2.318000000    -2.954000000
H    -5.815000000     1.448000000    -2.731000000
H    -7.098000000     2.225000000    -2.936000000
O     4.268000000    -0.337000000    -1.914000000
H     3.905000000    -0.760000000    -1.136000000
H     5.204000000    -0.258000000    -1.729000000
O     1.596000000     4.011000000    -2.966000000
H     1.637000000     4.545000000    -3.760000000
H     0.990000000     3.304000000    -3.184000000
O     3.836000000    -2.944000000     3.277000000
H     3.594000000    -2.951000000     2.351000000
H     3.204000000    -3.528000000     3.695000000
O    -0.288000000    -6.768000000    -0.451000000
H     0.237000000    -7.532000000    -0.214000000
H     0.351000000    -6.117000000    -0.739000000
O    -4.058000000     2.695000000     2.265000000
H    -3.488000000     3.437000000     2.061000000
H    -4.086000000     2.186000000     1.455000000
O     3.861000000     5.094000000    -2.243000000
H     4.017000000     5.623000000    -3.025000000
H     3.050000000     4.621000000    -2.432000000
O    -4.799000000    -0.343000000    -2.762000000
H    -4.637000000    -0.644000000    -1.868000000
H    -4.495000000    -1.063000000    -3.315000000
O     5.498000000     2.697000000    -0.565000000
H     6.186000000     3.174000000    -1.030000000
H     4.686000000     3.129000000    -0.829000000
O     1.204000000    -4.684000000    -0.960000000
H     1.464000000    -4.113000000    -0.237000000
H     1.834000000    -4.492000000    -1.655000000
O     4.154000000     1.826000000    -4.112000000
H     4.051000000     1.230000000    -3.371000000
H     3.357000000     1.706000000    -4.629000000
O    -2.495000000     2.315000000    -5.984000000
H    -1.864000000     2.501000000    -6.680000000
H    -2.620000000     3.156000000    -5.543000000
O     6.434000000    -2.227000000     2.353000000
H     6.540000000    -2.786000000     1.583000000
H     5.766000000    -2.668000000     2.877000000
O     2.155000000     1.007000000     4.187000000
H     1.872000000     1.622000000     3.511000000
H     1.422000000     0.398000000     4.278000000
O    -0.276000000     1.493000000    -3.480000000
H    -0.300000000     0.892000000    -2.736000000
H    -1.180000000     1.520000000    -3.795000000
O    -3.395000000    -2.736000000    -3.341000000
H    -4.049000000    -3.221000000    -2.838000000
H    -2.598000000    -2.791000000    -2.814000000
O     5.959000000    -2.745000000    -0.366000000
H     6.483000000    -1.946000000    -0.302000000
H     5.075000000    -2.471000000    -0.123000000
O    -2.416000000     4.802000000    -1.626000000
H    -2.227000000     4.247000000    -0.869000000
H    -1.707000000     5.445000000    -1.634000000
O     3.171000000     5.667000000     0.325000000
H     3.592000000     6.513000000     0.480000000
H     3.552000000     5.357000000    -0.496000000
O     3.412000000    -5.429000000     1.172000000
H     3.417000000    -5.834000000     0.305000000
H     2.867000000    -4.648000000     1.068000000
O     3.808000000     3.727000000     2.740000000
H     3.022000000     3.195000000     2.616000000
H     3.880000000     4.240000000     1.934000000
O    -6.369000000     3.453000000     3.256000000
H    -6.556000000     2.618000000     3.684000000
H    -5.575000000     3.290000000     2.747000000
O     0.996000000    -6.924000000     2.673000000
H     1.480000000    -7.312000000     1.944000000
H     1.367000000    -6.047000000     2.767000000
O     4.099000000    -3.648000000    -2.811000000
H     4.438000000    -3.821000000    -1.933000000
H     4.481000000    -4.337000000    -3.355000000
O     3.857000000    -6.079000000     3.984000000
H     3.440000000    -5.695000000     3.213000000
H     3.137000000    -6.473000000     4.475000000
O     2.135000000    -1.789000000    -2.929000000
H     2.517000000    -0.967000000    -2.620000000
H     2.830000000    -2.436000000    -2.809000000
O    -5.004000000    -2.043000000    -0.276000000
H    -5.875000000    -2.439000000    -0.303000000
H    -4.514000000    -2.586000000     0.342000000
O     6.339000000     2.955000000     2.029000000
H     5.511000000     2.996000000     2.508000000
H     6.085000000     2.752000000     1.128000000
O     6.975000000    -0.098000000    -0.227000000
H     6.628000000     0.761000000     0.014000000
H     7.920000000     0.037000000    -0.302000000
O    -3.312000000    -1.338000000     3.207000000
H    -2.737000000    -0.601000000     3.413000000
H    -4.173000000    -0.940000000     3.073000000
O     0.048000000     5.607000000    -1.301000000
H     0.472000000     4.912000000    -1.806000000
H     0.569000000     5.674000000    -0.501000000
O    -5.053000000     0.605000000     0.624000000
H    -4.858000000    -0.220000000     0.180000000
H    -5.391000000     0.341000000     1.480000000
O    -0.037000000    -0.734000000     4.219000000
H    -0.220000000    -1.671000000     4.296000000
H    -0.781000000    -0.309000000     4.644000000
O     1.261000000     2.901000000     2.543000000
H     0.872000000     3.771000000     2.452000000
H     0.671000000     2.323000000     2.059000000
O    -5.820000000    -0.594000000     2.981000000
H    -6.471000000    -1.290000000     2.892000000
H    -6.173000000    -0.022000000     3.662000000
O    -7.974000000    -0.120000000    -0.337000000
H    -7.907000000    -1.068000000    -0.228000000
H    -7.115000000     0.213000000    -0.078000000
O    -0.527000000     4.848000000     2.691000000
H    -1.384000000     4.943000000     2.276000000
H    -0.682000000     5.059000000     3.612000000
O    -6.623000000     4.051000000    -0.915000000
H    -6.439000000     3.562000000    -1.717000000
H    -6.812000000     3.377000000    -0.262000000
O    -3.685000000    -3.929000000     1.481000000
H    -3.041000000    -4.594000000     1.724000000
H    -3.514000000    -3.201000000     2.079000000
