161
-3044.77281
C     1.157000000     0.095000000     1.016000000
H     2.019000000     0.264000000     1.658000000
C     0.808000000     0.978000000    -0.004000000
H     1.367000000     1.910000000    -0.029000000
C    -0.286000000     0.861000000    -0.904000000
C    -0.715000000     1.980000000    -1.828000000
H    -1.413000000     1.596000000    -2.575000000
H    -1.186000000     2.776000000    -1.247000000
H     0.111000000     2.441000000    -2.373000000
C    -1.083000000    -0.316000000    -0.751000000
H    -1.896000000    -0.425000000    -1.464000000
C    -0.668000000    -1.308000000     0.181000000
H    -1.349000000    -2.147000000     0.298000000
C     0.407000000    -1.121000000     1.073000000
C     0.788000000    -2.187000000     2.087000000
O     0.423000000    -3.345000000     1.839000000
O     1.518000000    -2.052000000     3.018000000
O    -0.703000000    -6.612000000    -0.532000000
H    -0.747000000    -6.271000000    -1.425000000
H    -0.188000000    -7.416000000    -0.607000000
O    -4.186000000    -5.611000000    -1.763000000
H    -3.980000000    -5.345000000    -0.867000000
H    -3.639000000    -5.048000000    -2.312000000
O     0.346000000     1.746000000     3.593000000
H     0.210000000     2.359000000     2.870000000
H    -0.523000000     1.635000000     3.978000000
O    -4.843000000     4.286000000    -0.338000000
H    -4.713000000     4.091000000    -1.266000000
H    -4.618000000     3.471000000     0.111000000
O     3.022000000    -6.057000000     4.886000000
H     3.341000000    -5.645000000     5.689000000
H     2.212000000    -5.590000000     4.682000000
O     0.045000000    -0.939000000    -4.222000000
H    -0.176000000    -0.598000000    -3.355000000
H     0.954000000    -0.673000000    -4.359000000
O    -3.521000000     3.640000000    -3.034000000
H    -3.591000000     3.597000000    -3.987000000
H    -3.349000000     2.737000000    -2.765000000
O    -0.017000000    -2.706000000     7.146000000
H     0.444000000    -1.868000000     7.178000000
H     0.242000000    -3.153000000     7.953000000
O     0.926000000     5.953000000    -1.431000000
H     0.955000000     6.883000000    -1.206000000
H     0.001000000     5.778000000    -1.604000000
O    -3.830000000    -0.320000000     2.286000000
H    -4.474000000    -0.987000000     2.524000000
H    -3.125000000    -0.429000000     2.924000000
O     4.107000000     3.658000000    -5.391000000
H     3.218000000     3.303000000    -5.412000000
H     4.035000000     4.455000000    -4.866000000
O     3.081000000     4.203000000     4.122000000
H     3.520000000     4.775000000     3.493000000
H     3.559000000     3.376000000     4.067000000
O    -4.464000000     0.935000000    -1.642000000
H    -5.368000000     1.216000000    -1.501000000
H    -3.988000000     1.265000000    -0.879000000
O    -1.918000000    -2.867000000     3.407000000
H    -2.513000000    -3.453000000     2.940000000
H    -1.051000000    -3.083000000     3.062000000
O    -1.829000000     5.442000000    -1.568000000
H    -1.948000000     5.020000000    -0.717000000
H    -2.471000000     5.017000000    -2.137000000
O     3.181000000     1.540000000     3.770000000
H     2.230000000     1.643000000     3.721000000
H     3.468000000     1.524000000     2.857000000
O     0.907000000    -4.018000000     4.770000000
H     0.989000000    -3.458000000     3.997000000
H     0.377000000    -3.506000000     5.381000000
O    -1.088000000     5.984000000    -5.662000000
H    -0.807000000     5.737000000    -4.780000000
H    -2.040000000     5.884000000    -5.647000000
O     4.749000000    -2.531000000     5.364000000
H     4.087000000    -1.892000000     5.098000000
H     4.335000000    -3.025000000     6.071000000
O     3.992000000     2.070000000     1.165000000
H     4.897000000     1.889000000     0.912000000
H     3.789000000     2.906000000     0.747000000
O     5.859000000    -0.569000000     2.306000000
H     5.507000000    -0.070000000     3.043000000
H     5.106000000    -1.048000000     1.960000000
O    -2.512000000     2.873000000    -5.572000000
H    -2.892000000     2.988000000    -6.443000000
H    -1.731000000     2.340000000    -5.720000000
O    -1.634000000     4.133000000     0.876000000
H    -0.680000000     4.052000000     0.874000000
H    -1.834000000     4.590000000     1.693000000
O     0.032000000    -6.026000000     2.350000000
H    -0.190000000    -6.203000000     1.436000000
H     0.093000000    -5.072000000     2.402000000
O     1.646000000     3.028000000    -5.913000000
H     0.891000000     2.909000000    -5.336000000
H     1.539000000     2.358000000    -6.588000000
O     2.926000000     4.386000000    -0.169000000
H     2.314000000     4.857000000    -0.735000000
H     3.099000000     4.992000000     0.552000000
O    -0.621000000     1.187000000    -6.275000000
H    -0.788000000     1.314000000    -7.209000000
H    -0.287000000     0.293000000    -6.211000000
O    -2.728000000    -0.692000000    -5.781000000
H    -3.032000000    -0.842000000    -4.885000000
H    -2.118000000     0.042000000    -5.707000000
O    -2.965000000    -3.886000000    -3.731000000
H    -2.786000000    -3.484000000    -4.581000000
H    -2.224000000    -4.474000000    -3.584000000
O    -2.116000000     7.769000000    -2.606000000
H    -2.150000000     6.920000000    -2.165000000
H    -3.031000000     7.975000000    -2.800000000
O     1.962000000    -0.625000000     7.342000000
H     2.050000000    -1.459000000     7.803000000
H     2.296000000    -0.801000000     6.462000000
O    -1.353000000    -5.857000000     4.942000000
H    -1.345000000    -6.104000000     4.017000000
H    -0.513000000    -5.419000000     5.080000000
O    -4.206000000    -2.223000000    -0.175000000
H    -4.957000000    -1.830000000    -0.620000000
H    -3.800000000    -1.496000000     0.298000000
O     3.120000000     1.130000000    -2.041000000
H     2.799000000     1.417000000    -1.186000000
H     3.832000000     0.524000000    -1.837000000
O     5.163000000     4.079000000    -2.271000000
H     5.023000000     4.946000000    -2.650000000
H     4.350000000     3.886000000    -1.805000000
O     3.451000000    -7.278000000     1.422000000
H     3.269000000    -7.958000000     0.773000000
H     2.588000000    -6.950000000     1.674000000
O    -3.896000000    -1.138000000    -3.244000000
H    -3.809000000    -1.899000000    -2.670000000
H    -4.088000000    -0.411000000    -2.651000000
O     2.686000000    -1.922000000    -1.689000000
H     2.676000000    -2.534000000    -0.953000000
H     1.998000000    -1.289000000    -1.484000000
O     3.847000000    -2.976000000     2.655000000
H     2.978000000    -2.588000000     2.761000000
H     4.162000000    -3.104000000     3.550000000
O     0.956000000    -8.188000000     4.066000000
H     0.480000000    -7.509000000     3.588000000
H     1.818000000    -7.806000000     4.232000000
O     2.968000000    -5.511000000    -1.644000000
H     3.915000000    -5.631000000    -1.572000000
H     2.746000000    -4.919000000    -0.926000000
O    -3.517000000    -4.523000000     0.743000000
H    -3.274000000    -3.655000000     0.421000000
H    -4.216000000    -4.357000000     1.376000000
O     2.494000000     0.060000000    -4.567000000
H     2.795000000     0.762000000    -3.990000000
H     3.205000000    -0.581000000    -4.556000000
O     0.893000000     3.991000000     1.503000000
H     1.193000000     4.645000000     2.135000000
H     1.622000000     3.899000000     0.890000000
O    -2.012000000    -0.169000000     4.326000000
H    -1.374000000    -0.744000000     3.904000000
H    -2.275000000    -0.642000000     5.116000000
O     2.833000000    -0.887000000     4.810000000
H     2.232000000    -1.179000000     4.125000000
H     3.030000000     0.022000000     4.585000000
O    -3.704000000     1.946000000     0.928000000
H    -2.977000000     2.527000000     1.155000000
H    -3.478000000     1.109000000     1.334000000
O     2.542000000    -3.820000000     0.282000000
H     1.712000000    -3.907000000     0.751000000
H     3.127000000    -3.393000000     0.907000000
