161
-3042.51753
C     0.614000000     0.749000000     1.059000000
H     1.090000000     1.415000000     1.774000000
C    -0.053000000     1.320000000    -0.041000000
H     0.045000000     2.398000000    -0.135000000
C    -0.649000000     0.483000000    -0.949000000
C    -1.220000000     1.001000000    -2.245000000
H    -0.582000000     1.804000000    -2.622000000
H    -1.218000000     0.214000000    -3.002000000
H    -2.228000000     1.416000000    -2.180000000
C    -0.638000000    -0.886000000    -0.730000000
H    -1.171000000    -1.510000000    -1.443000000
C     0.086000000    -1.454000000     0.342000000
H     0.162000000    -2.530000000     0.478000000
C     0.747000000    -0.595000000     1.267000000
C     1.524000000    -1.135000000     2.481000000
O     1.452000000    -2.320000000     2.690000000
O     2.042000000    -0.367000000     3.255000000
O     4.551000000    -4.285000000     1.905000000
H     4.431000000    -5.226000000     1.783000000
H     4.322000000    -4.131000000     2.822000000
O    -4.173000000    -2.283000000    -3.194000000
H    -4.721000000    -2.994000000    -3.528000000
H    -3.545000000    -2.717000000    -2.617000000
O    -0.595000000     2.209000000    -5.468000000
H    -0.960000000     1.446000000    -5.914000000
H    -0.136000000     1.847000000    -4.710000000
O    -2.392000000     0.718000000     2.749000000
H    -2.577000000     0.756000000     3.687000000
H    -1.470000000     0.961000000     2.677000000
O     5.655000000     1.014000000     1.070000000
H     5.565000000     0.238000000     0.517000000
H     5.832000000     1.726000000     0.456000000
O     4.439000000     0.301000000     3.550000000
H     4.638000000     0.648000000     2.680000000
H     3.694000000    -0.283000000     3.411000000
O    -0.257000000    -0.851000000     7.978000000
H     0.405000000    -0.971000000     7.298000000
H    -1.081000000    -0.765000000     7.498000000
O     4.445000000    -2.833000000    -2.984000000
H     5.179000000    -3.057000000    -2.411000000
H     3.713000000    -2.680000000    -2.387000000
O     6.850000000    -0.892000000     3.471000000
H     7.438000000    -0.220000000     3.816000000
H     5.972000000    -0.546000000     3.630000000
O     5.366000000     2.328000000     5.436000000
H     5.493000000     2.109000000     6.359000000
H     5.017000000     1.527000000     5.046000000
O     0.461000000    -0.037000000    -7.581000000
H     1.079000000     0.000000000    -6.852000000
H     0.937000000     0.345000000    -8.319000000
O    -0.019000000    -0.986000000    -4.911000000
H     0.235000000    -1.803000000    -4.481000000
H     0.532000000    -0.319000000    -4.502000000
O    -3.954000000     5.295000000    -3.230000000
H    -3.111000000     5.014000000    -3.586000000
H    -4.504000000     5.437000000    -4.001000000
O    -1.163000000     4.646000000    -1.318000000
H    -1.202000000     5.558000000    -1.606000000
H    -1.715000000     4.174000000    -1.942000000
O     0.502000000     1.500000000     4.169000000
H     0.905000000     2.279000000     3.785000000
H     1.122000000     0.794000000     3.985000000
O     1.736000000    -1.335000000     5.856000000
H     1.722000000    -1.007000000     4.957000000
H     1.216000000    -2.137000000     5.827000000
O    -1.743000000     4.478000000    -4.434000000
H    -1.501000000     3.705000000    -4.944000000
H    -1.311000000     5.205000000    -4.882000000
O    -0.903000000    -2.125000000     4.213000000
H    -0.202000000    -2.291000000     3.583000000
H    -0.720000000    -2.723000000     4.938000000
O     0.655000000    -4.626000000    -0.621000000
H     0.040000000    -5.050000000    -0.024000000
H     0.647000000    -5.176000000    -1.405000000
O     0.279000000    -3.733000000     5.952000000
H     0.896000000    -4.434000000     5.741000000
H    -0.161000000    -4.032000000     6.747000000
O     2.067000000     4.380000000    -2.123000000
H     1.201000000     4.000000000    -1.979000000
H     2.638000000     3.625000000    -2.272000000
O     1.293000000     4.266000000    -5.509000000
H     0.551000000     4.846000000    -5.679000000
H     0.897000000     3.405000000    -5.369000000
O     1.585000000     1.009000000    -4.265000000
H     2.174000000     0.985000000    -5.020000000
H     2.130000000     1.329000000    -3.547000000
O    -1.753000000     0.157000000     5.286000000
H    -1.038000000     0.639000000     4.870000000
H    -1.681000000    -0.730000000     4.936000000
O     1.256000000    -5.109000000     2.632000000
H     1.642000000    -5.499000000     1.848000000
H     1.322000000    -4.165000000     2.489000000
O     3.788000000    -3.012000000     4.626000000
H     3.000000000    -2.925000000     4.089000000
H     3.461000000    -3.237000000     5.497000000
O    -2.805000000    -3.665000000    -1.203000000
H    -2.462000000    -4.471000000    -1.588000000
H    -2.536000000    -3.705000000    -0.285000000
O     2.062000000     3.360000000     3.298000000
H     2.235000000     3.831000000     2.483000000
H     2.717000000     3.694000000     3.911000000
O    -2.710000000     4.021000000     3.142000000
H    -2.952000000     4.920000000     2.920000000
H    -2.149000000     4.108000000     3.913000000
O    -5.171000000     0.836000000    -5.514000000
H    -4.237000000     0.635000000    -5.471000000
H    -5.592000000    -0.010000000    -5.664000000
O     3.077000000    -0.392000000    -0.576000000
H     2.427000000    -0.120000000     0.072000000
H     3.106000000    -1.346000000    -0.499000000
O     3.528000000    -1.012000000     8.118000000
H     3.035000000    -0.586000000     7.417000000
H     4.245000000    -1.460000000     7.669000000
O     0.616000000    -3.132000000    -2.955000000
H     1.197000000    -3.885000000    -2.847000000
H     0.524000000    -2.773000000    -2.072000000
O     2.662000000     1.393000000     6.322000000
H     3.101000000     0.737000000     5.781000000
H     1.757000000     1.393000000     6.012000000
O     3.171000000    -3.467000000    -0.485000000
H     3.686000000    -3.934000000     0.173000000
H     2.322000000    -3.909000000    -0.483000000
O    -4.896000000     2.179000000    -1.712000000
H    -5.029000000     2.234000000    -2.658000000
H    -4.834000000     1.240000000    -1.533000000
O     3.222000000     1.976000000    -2.116000000
H     2.894000000     1.090000000    -1.964000000
H     3.982000000     2.052000000    -1.539000000
O     2.213000000     4.805000000     0.838000000
H     1.269000000     4.792000000     0.994000000
H     2.297000000     4.952000000    -0.104000000
O    -2.916000000    -0.285000000    -4.924000000
H    -1.974000000    -0.455000000    -4.940000000
H    -3.286000000    -1.033000000    -4.456000000
O    -4.828000000    -0.535000000    -1.017000000
H    -4.491000000    -1.215000000    -0.434000000
H    -4.555000000    -0.812000000    -1.892000000
O    -0.349000000     4.977000000     1.490000000
H    -0.587000000     4.385000000     0.777000000
H    -0.620000000     4.515000000     2.284000000
O    -1.591000000    -3.757000000    -4.509000000
H    -0.884000000    -3.335000000    -4.021000000
H    -1.531000000    -3.383000000    -5.388000000
O    -4.855000000     4.817000000    -0.615000000
H    -4.833000000     3.862000000    -0.560000000
H    -4.478000000     5.016000000    -1.472000000
O    -2.169000000    -3.845000000     1.411000000
H    -1.956000000    -3.802000000     2.343000000
H    -2.111000000    -4.775000000     1.194000000
O    -2.063000000    -6.482000000     0.514000000
H    -1.687000000    -7.173000000    -0.032000000
H    -2.996000000    -6.691000000     0.556000000
O    -0.474000000    -7.242000000     3.167000000
H    -0.546000000    -6.440000000     3.684000000
H     0.463000000    -7.328000000     2.989000000
O    -3.776000000    -1.555000000     1.265000000
H    -3.124000000    -0.855000000     1.227000000
H    -3.262000000    -2.362000000     1.240000000
O    -4.650000000     2.190000000     1.421000000
H    -4.181000000     2.113000000     0.591000000
H    -3.975000000     2.070000000     2.089000000
