161
-3011.18571
C     0.965000000     0.659000000     0.956000000
H     1.633000000     1.193000000     1.626000000
C     0.226000000     1.318000000     0.020000000
H     0.475000000     2.363000000    -0.144000000
C    -0.564000000     0.654000000    -0.878000000
C    -1.301000000     1.198000000    -1.993000000
H    -1.049000000     0.692000000    -2.928000000
H    -2.387000000     1.263000000    -1.900000000
H    -1.019000000     2.232000000    -2.198000000
C    -0.761000000    -0.757000000    -0.719000000
H    -1.484000000    -1.211000000    -1.392000000
C    -0.031000000    -1.469000000     0.250000000
H    -0.159000000    -2.548000000     0.243000000
C     0.753000000    -0.674000000     1.173000000
C     1.427000000    -1.448000000     2.283000000
O     1.038000000    -2.532000000     2.629000000
O     2.237000000    -0.929000000     2.967000000
O     4.532000000    -6.055000000     4.211000000
H     3.879000000    -5.388000000     4.001000000
H     4.019000000    -6.812000000     4.496000000
O    -0.084000000    -2.137000000    -3.652000000
H     0.629000000    -1.501000000    -3.599000000
H    -0.394000000    -2.225000000    -2.751000000
O     1.959000000    -4.171000000     6.102000000
H     2.382000000    -3.825000000     6.888000000
H     1.918000000    -5.116000000     6.249000000
O    -6.289000000     3.377000000     0.527000000
H    -6.800000000     2.654000000     0.163000000
H    -5.430000000     3.296000000     0.112000000
O     5.346000000    -1.001000000     1.191000000
H     5.981000000    -0.777000000     0.511000000
H     4.544000000    -1.209000000     0.711000000
O     1.591000000    -4.917000000    -1.507000000
H     1.915000000    -5.815000000    -1.445000000
H     2.354000000    -4.373000000    -1.312000000
O     0.215000000     4.215000000    -3.307000000
H     0.459000000     5.106000000    -3.559000000
H     0.136000000     3.745000000    -4.137000000
O     1.089000000     7.128000000     1.555000000
H     1.529000000     7.608000000     0.854000000
H     0.750000000     6.341000000     1.130000000
O     6.304000000    -2.830000000     3.208000000
H     5.563000000    -2.576000000     3.758000000
H     6.137000000    -2.402000000     2.368000000
O    -5.803000000    -1.696000000    -1.991000000
H    -6.274000000    -1.743000000    -2.823000000
H    -5.013000000    -2.219000000    -2.133000000
O    -7.123000000     1.571000000    -1.582000000
H    -6.767000000     0.894000000    -1.006000000
H    -6.353000000     1.957000000    -2.000000000
O    -0.701000000     4.967000000    -0.691000000
H    -0.442000000     4.745000000    -1.585000000
H    -1.112000000     5.828000000    -0.768000000
O     1.755000000     1.212000000     7.263000000
H     1.428000000     0.833000000     8.079000000
H     1.379000000     0.662000000     6.576000000
O     1.111000000    -0.790000000     5.464000000
H     0.957000000    -1.716000000     5.650000000
H     1.452000000    -0.779000000     4.569000000
O     3.928000000    -2.227000000     4.543000000
H     3.386000000    -1.889000000     3.831000000
H     3.323000000    -2.733000000     5.086000000
O     0.447000000     0.496000000    -4.900000000
H     0.360000000     0.092000000    -5.763000000
H     1.234000000     0.100000000    -4.528000000
O    -1.463000000    -4.098000000     2.453000000
H    -1.259000000    -4.719000000     3.152000000
H    -0.742000000    -3.469000000     2.473000000
O    -1.294000000    -5.881000000     0.304000000
H    -1.738000000    -5.213000000     0.827000000
H    -0.533000000    -6.129000000     0.829000000
O    -0.573000000    -6.178000000     4.629000000
H     0.132000000    -6.423000000     5.229000000
H    -1.223000000    -6.874000000     4.726000000
O    -5.291000000     0.079000000    -0.101000000
H    -4.488000000    -0.291000000     0.266000000
H    -5.519000000    -0.510000000    -0.820000000
O     0.652000000     4.504000000     4.755000000
H     0.978000000     4.286000000     3.882000000
H     1.334000000     4.191000000     5.350000000
O    -1.424000000    -3.893000000     7.035000000
H    -2.004000000    -4.649000000     6.949000000
H    -1.227000000    -3.638000000     6.133000000
O     2.432000000    -4.766000000     2.186000000
H     1.787000000    -5.468000000     2.101000000
H     1.926000000    -4.012000000     2.490000000
O     2.689000000     3.895000000     0.527000000
H     2.636000000     4.644000000    -0.066000000
H     3.165000000     3.229000000     0.030000000
O    -0.034000000    -3.152000000     4.821000000
H     0.369000000    -2.904000000     3.989000000
H     0.667000000    -3.582000000     5.309000000
O    -1.102000000    -4.270000000    -1.834000000
H    -1.450000000    -4.877000000    -1.181000000
H    -0.153000000    -4.391000000    -1.792000000
O     0.351000000     4.147000000     1.818000000
H     1.249000000     3.983000000     1.528000000
H    -0.146000000     4.254000000     1.008000000
O     3.201000000    -0.937000000    -0.376000000
H     2.345000000    -1.000000000     0.049000000
H     3.259000000    -1.725000000    -0.916000000
O     5.286000000     1.267000000     5.351000000
H     4.972000000     0.516000000     5.856000000
H     4.960000000     1.113000000     4.465000000
O     3.937000000    -3.283000000    -1.328000000
H     4.784000000    -3.015000000    -1.684000000
H     4.150000000    -3.957000000    -0.683000000
O     4.337000000     0.693000000     3.066000000
H     4.703000000     0.316000000     2.266000000
H     3.835000000    -0.022000000     3.460000000
O    -5.224000000     3.146000000    -2.787000000
H    -5.063000000     3.492000000    -3.665000000
H    -4.866000000     3.811000000    -2.199000000
O     3.978000000     1.697000000    -0.671000000
H     3.627000000     0.846000000    -0.408000000
H     3.340000000     2.035000000    -1.300000000
O     4.648000000    -5.190000000     0.451000000
H     4.698000000    -6.130000000     0.624000000
H     3.972000000    -4.872000000     1.049000000
O    -3.769000000     3.111000000    -0.013000000
H    -3.009000000     2.851000000     0.508000000
H    -3.938000000     2.358000000    -0.580000000
O     2.281000000     2.490000000    -2.669000000
H     1.476000000     2.936000000    -2.933000000
H     2.784000000     2.405000000    -3.479000000
O    -2.504000000    -0.966000000    -4.687000000
H    -1.611000000    -0.715000000    -4.450000000
H    -3.017000000    -0.166000000    -4.567000000
O    -0.839000000     0.621000000     4.462000000
H    -0.951000000     1.258000000     5.168000000
H    -0.179000000     0.011000000     4.791000000
O    -3.917000000    -3.740000000     0.220000000
H    -3.562000000    -3.564000000    -0.652000000
H    -3.962000000    -2.880000000     0.638000000
O     2.396000000    -1.041000000    -4.313000000
H     2.378000000    -1.954000000    -4.600000000
H     3.316000000    -0.873000000    -4.108000000
O    -1.372000000    -4.031000000    -4.941000000
H    -0.608000000    -4.583000000    -5.109000000
H    -1.023000000    -3.276000000    -4.467000000
O     2.406000000     5.914000000    -1.101000000
H     3.180000000     6.450000000    -1.277000000
H     1.722000000     6.293000000    -1.654000000
O    -0.373000000     3.066000000    -5.633000000
H    -1.112000000     2.922000000    -6.224000000
H    -0.173000000     2.197000000    -5.285000000
O     3.251000000     3.066000000     3.430000000
H     3.050000000     3.356000000     2.540000000
H     3.627000000     2.193000000     3.319000000
O    -3.471000000    -1.151000000     1.298000000
H    -3.831000000    -1.223000000     2.182000000
H    -2.545000000    -1.370000000     1.398000000
O    -3.174000000    -2.635000000    -2.385000000
H    -2.966000000    -2.209000000    -3.216000000
H    -2.387000000    -3.137000000    -2.170000000
O    -3.712000000     1.357000000    -5.018000000
H    -3.971000000     2.184000000    -4.611000000
H    -4.245000000     1.304000000    -5.812000000
O    -1.943000000     2.387000000     1.972000000
H    -1.300000000     3.060000000     2.197000000
H    -1.439000000     1.574000000     1.943000000
