161
-3042.27927
C     1.061000000     0.466000000     0.953000000
H     1.852000000     0.856000000     1.588000000
C     0.623000000     1.088000000    -0.237000000
H     1.117000000     2.019000000    -0.503000000
C    -0.271000000     0.508000000    -1.137000000
C    -0.706000000     1.270000000    -2.348000000
H    -0.012000000     2.028000000    -2.716000000
H    -0.971000000     0.547000000    -3.123000000
H    -1.654000000     1.781000000    -2.166000000
C    -0.829000000    -0.714000000    -0.712000000
H    -1.561000000    -1.239000000    -1.321000000
C    -0.550000000    -1.274000000     0.545000000
H    -1.070000000    -2.204000000     0.758000000
C     0.430000000    -0.720000000     1.340000000
C     0.750000000    -1.295000000     2.681000000
O     0.287000000    -2.391000000     3.005000000
O     1.503000000    -0.727000000     3.394000000
O    -2.231000000    -2.913000000    -3.513000000
H    -1.329000000    -2.639000000    -3.351000000
H    -2.206000000    -3.323000000    -4.378000000
O     2.186000000    -5.045000000     5.817000000
H     2.236000000    -5.223000000     6.756000000
H     2.283000000    -5.903000000     5.404000000
O    -5.405000000    -1.890000000     3.285000000
H    -4.692000000    -1.501000000     3.791000000
H    -5.029000000    -2.691000000     2.919000000
O     5.492000000    -1.989000000     0.364000000
H     5.777000000    -2.681000000    -0.232000000
H     4.916000000    -1.438000000    -0.166000000
O     1.467000000     3.490000000    -4.330000000
H     2.102000000     4.105000000    -4.697000000
H     0.915000000     3.244000000    -5.073000000
O     4.544000000    -3.660000000     2.822000000
H     3.960000000    -3.096000000     3.328000000
H     4.452000000    -3.352000000     1.920000000
O    -1.080000000     6.527000000    -1.619000000
H    -1.928000000     6.482000000    -1.178000000
H    -1.295000000     6.725000000    -2.531000000
O    -5.486000000     0.917000000    -0.317000000
H    -5.213000000     0.074000000    -0.679000000
H    -6.439000000     0.920000000    -0.412000000
O    -3.104000000    -0.161000000     4.323000000
H    -3.772000000     0.521000000     4.382000000
H    -2.282000000     0.317000000     4.212000000
O     0.929000000     4.792000000    -1.843000000
H     0.631000000     4.416000000    -2.671000000
H     0.232000000     5.397000000    -1.590000000
O    -0.354000000     2.094000000     6.558000000
H    -1.213000000     2.018000000     6.974000000
H    -0.094000000     1.190000000     6.380000000
O     0.463000000    -0.730000000     6.025000000
H     1.311000000    -0.910000000     6.430000000
H     0.677000000    -0.429000000     5.142000000
O     2.994000000    -2.683000000     5.155000000
H     2.201000000    -2.346000000     4.739000000
H     2.781000000    -3.589000000     5.379000000
O    -0.937000000     0.396000000    -5.854000000
H    -0.265000000     0.037000000    -5.274000000
H    -0.942000000    -0.193000000    -6.608000000
O    -1.531000000    -4.275000000     2.293000000
H    -1.889000000    -4.610000000     3.115000000
H    -0.853000000    -3.655000000     2.563000000
O    -1.783000000    -5.681000000     0.071000000
H    -1.536000000    -5.250000000     0.889000000
H    -1.180000000    -6.422000000    -0.001000000
O    -1.082000000    -6.885000000     6.153000000
H    -0.833000000    -6.048000000     5.761000000
H    -0.618000000    -6.904000000     6.990000000
O     2.714000000     0.341000000    -7.001000000
H     2.177000000     0.287000000    -6.211000000
H     2.427000000    -0.398000000    -7.537000000
O    -5.408000000    -2.223000000    -0.735000000
H    -4.969000000    -3.047000000    -0.529000000
H    -4.852000000    -1.815000000    -1.399000000
O    -2.501000000    -2.431000000     5.943000000
H    -2.858000000    -1.777000000     5.342000000
H    -1.711000000    -2.751000000     5.507000000
O     1.453000000    -5.889000000     2.092000000
H     1.858000000    -6.310000000     2.850000000
H     0.551000000    -6.210000000     2.092000000
O     2.712000000     4.753000000     0.241000000
H     2.398000000     4.836000000    -0.659000000
H     3.660000000     4.861000000     0.174000000
O    -0.340000000    -4.259000000     4.919000000
H    -0.138000000    -3.654000000     4.205000000
H     0.514000000    -4.575000000     5.214000000
O    -3.576000000    -5.177000000    -1.974000000
H    -3.220000000    -5.013000000    -1.101000000
H    -2.819000000    -5.116000000    -2.557000000
O     0.017000000     4.179000000     1.112000000
H    -0.475000000     3.479000000     0.683000000
H     0.716000000     4.393000000     0.494000000
O     2.389000000    -2.954000000    -0.973000000
H     1.985000000    -2.546000000    -0.207000000
H     2.756000000    -3.774000000    -0.642000000
O     4.442000000    -0.129000000     5.252000000
H     3.874000000    -0.898000000     5.286000000
H     5.011000000    -0.218000000     6.017000000
O     2.532000000     1.703000000     4.152000000
H     3.243000000     1.333000000     4.675000000
H     2.111000000     0.944000000     3.750000000
O    -2.118000000     3.950000000    -4.354000000
H    -3.029000000     4.184000000    -4.531000000
H    -1.798000000     4.649000000    -3.784000000
O    -3.065000000     2.155000000    -7.528000000
H    -3.995000000     2.057000000    -7.732000000
H    -2.830000000     1.340000000    -7.084000000
O     4.282000000    -0.372000000    -1.566000000
H     4.304000000    -0.759000000    -2.441000000
H     3.667000000     0.357000000    -1.642000000
O     1.416000000     4.150000000     6.062000000
H     0.763000000     3.510000000     6.347000000
H     1.805000000     3.762000000     5.278000000
O     2.895000000    -5.470000000    -0.246000000
H     3.000000000    -6.376000000    -0.535000000
H     2.458000000    -5.538000000     0.603000000
O    -3.840000000     3.293000000    -0.631000000
H    -3.247000000     2.922000000     0.022000000
H    -4.637000000     2.769000000    -0.557000000
O     1.409000000    -0.024000000    -4.354000000
H     1.111000000     0.494000000    -3.606000000
H     1.114000000    -0.914000000    -4.162000000
O     3.388000000     2.246000000    -2.464000000
H     2.682000000     2.866000000    -2.641000000
H     3.581000000     1.852000000    -3.315000000
O    -4.171000000    -0.647000000    -2.585000000
H    -3.300000000    -0.995000000    -2.778000000
H    -4.224000000     0.162000000    -3.094000000
O    -3.959000000    -1.448000000    -5.823000000
H    -3.371000000    -1.410000000    -6.578000000
H    -3.968000000    -0.554000000    -5.482000000
O    -1.246000000     1.756000000     3.843000000
H    -0.844000000     2.481000000     3.364000000
H    -1.056000000     1.943000000     4.763000000
O     0.589000000    -2.663000000    -3.132000000
H     0.750000000    -3.525000000    -3.515000000
H     1.308000000    -2.537000000    -2.513000000
O    -0.534000000     3.331000000    -6.875000000
H    -1.355000000     3.756000000    -6.625000000
H    -0.680000000     2.403000000    -6.694000000
O     2.445000000     4.433000000     3.107000000
H     2.284000000     4.441000000     2.164000000
H     2.583000000     3.509000000     3.318000000
O    -4.213000000    -6.561000000     1.335000000
H    -3.380000000    -6.350000000     0.913000000
H    -3.972000000    -7.121000000     2.073000000
O    -4.104000000    -3.776000000     1.046000000
H    -4.463000000    -4.597000000     1.384000000
H    -3.226000000    -3.725000000     1.424000000
O    -5.190000000    -3.674000000    -3.532000000
H    -4.554000000    -3.062000000    -3.903000000
H    -4.714000000    -4.117000000    -2.830000000
O    -3.082000000     1.135000000    -4.450000000
H    -3.226000000     2.060000000    -4.651000000
H    -2.233000000     0.934000000    -4.841000000
O    -2.424000000     1.533000000     0.927000000
H    -1.890000000     1.021000000     1.534000000
H    -2.284000000     1.117000000     0.076000000
O    -3.597000000     6.083000000    -0.867000000
H    -3.778000000     5.144000000    -0.897000000
H    -4.462000000     6.494000000    -0.889000000
