161
-3027.02293
C    -1.183000000     0.796000000    -0.226000000
H    -2.046000000     1.416000000    -0.453000000
C    -0.147000000     0.662000000    -1.146000000
H    -0.196000000     1.225000000    -2.074000000
C     0.958000000    -0.152000000    -0.785000000
C     2.163000000    -0.216000000    -1.756000000
H     2.937000000     0.475000000    -1.415000000
H     2.490000000    -1.244000000    -1.926000000
H     1.757000000     0.117000000    -2.713000000
C     0.876000000    -0.872000000     0.396000000
H     1.751000000    -1.466000000     0.649000000
C    -0.197000000    -0.731000000     1.268000000
H    -0.129000000    -1.144000000     2.271000000
C    -1.220000000     0.058000000     0.960000000
C    -2.337000000     0.263000000     2.012000000
O    -2.453000000    -0.429000000     3.047000000
O    -3.023000000     1.243000000     1.889000000
O    -6.123000000    -1.580000000     1.620000000
H    -5.475000000    -2.056000000     2.140000000
H    -6.962000000    -1.791000000     2.031000000
O    -3.020000000    -0.601000000    -4.753000000
H    -2.113000000    -0.475000000    -5.031000000
H    -3.067000000    -0.186000000    -3.891000000
O    -0.128000000    -2.316000000     6.631000000
H    -0.739000000    -2.731000000     7.241000000
H    -0.550000000    -1.489000000     6.397000000
O    -3.014000000     3.722000000     0.949000000
H    -2.990000000     3.546000000     0.008000000
H    -2.955000000     2.858000000     1.356000000
O    -5.271000000     4.017000000     5.792000000
H    -5.110000000     3.355000000     5.120000000
H    -6.209000000     3.952000000     5.973000000
O    -7.140000000     1.798000000     4.473000000
H    -7.741000000     1.244000000     3.975000000
H    -6.271000000     1.555000000     4.155000000
O    -0.764000000    -2.789000000    -3.927000000
H    -1.207000000    -2.693000000    -3.084000000
H    -0.697000000    -1.896000000    -4.265000000
O     5.873000000     0.863000000     1.865000000
H     5.694000000     0.150000000     1.252000000
H     5.090000000     1.413000000     1.826000000
O     1.162000000    -0.031000000     4.099000000
H     0.466000000     0.079000000     4.748000000
H     1.032000000     0.691000000     3.484000000
O    -4.073000000     6.249000000     1.928000000
H    -3.479000000     5.633000000     2.359000000
H    -4.758000000     5.697000000     1.550000000
O     3.419000000    -3.692000000     1.779000000
H     3.704000000    -3.914000000     2.665000000
H     3.352000000    -2.737000000     1.781000000
O     4.797000000     1.714000000    -4.337000000
H     5.445000000     2.081000000    -4.938000000
H     4.780000000     2.325000000    -3.600000000
O     1.219000000    -0.673000000    -7.291000000
H     0.701000000    -0.658000000    -8.095000000
H     1.520000000     0.229000000    -7.183000000
O     4.221000000     4.106000000    -2.202000000
H     4.920000000     4.544000000    -2.688000000
H     3.433000000     4.264000000    -2.721000000
O    -5.193000000     1.189000000     0.403000000
H    -5.409000000     0.326000000     0.756000000
H    -4.423000000     1.465000000     0.900000000
O    -4.951000000     5.076000000    -1.228000000
H    -4.537000000     5.928000000    -1.095000000
H    -4.220000000     4.471000000    -1.351000000
O     2.041000000     4.623000000    -3.718000000
H     1.646000000     5.209000000    -3.072000000
H     2.255000000     5.192000000    -4.458000000
O    -3.268000000    -4.600000000     0.490000000
H    -2.594000000    -4.035000000     0.867000000
H    -3.121000000    -4.550000000    -0.455000000
O     4.517000000    -5.771000000     0.201000000
H     4.856000000    -5.705000000    -0.692000000
H     4.112000000    -4.919000000     0.367000000
O    -2.678000000     5.075000000     4.328000000
H    -3.295000000     4.752000000     4.984000000
H    -2.107000000     4.328000000     4.148000000
O    -0.326000000    -0.181000000    -5.006000000
H     0.245000000     0.542000000    -4.749000000
H     0.118000000    -0.585000000    -5.751000000
O    -1.357000000    -0.191000000     5.634000000
H    -1.786000000     0.526000000     6.100000000
H    -1.776000000    -0.203000000     4.774000000
O     1.091000000     2.125000000     2.237000000
H     1.906000000     2.469000000     2.601000000
H     1.161000000     2.288000000     1.296000000
O    -7.356000000     1.912000000    -1.286000000
H    -6.497000000     1.926000000    -0.864000000
H    -7.483000000     0.997000000    -1.539000000
O     6.055000000    -2.989000000    -2.327000000
H     5.816000000    -2.106000000    -2.609000000
H     6.112000000    -2.929000000    -1.373000000
O    -4.705000000    -1.819000000    -0.609000000
H    -5.150000000    -2.553000000    -1.034000000
H    -5.075000000    -1.794000000     0.273000000
O     4.546000000     3.335000000     0.381000000
H     5.478000000     3.209000000     0.560000000
H     4.501000000     3.469000000    -0.566000000
O    -1.930000000    -3.077000000     2.658000000
H    -1.022000000    -3.373000000     2.724000000
H    -1.920000000    -2.193000000     3.025000000
O     0.729000000    -3.384000000     4.483000000
H     1.659000000    -3.181000000     4.384000000
H     0.465000000    -2.917000000     5.276000000
O    -1.906000000    -2.200000000    -1.360000000
H    -1.459000000    -1.662000000    -0.708000000
H    -2.837000000    -2.094000000    -1.161000000
O    -1.244000000     2.939000000     3.497000000
H    -1.876000000     2.413000000     3.007000000
H    -0.426000000     2.847000000     3.008000000
O     5.491000000    -0.432000000    -2.662000000
H     4.893000000     0.066000000    -3.219000000
H     6.246000000     0.145000000    -2.547000000
O     1.097000000    -4.993000000     1.738000000
H     1.901000000    -4.526000000     1.965000000
H     0.485000000    -4.304000000     1.479000000
O     1.472000000     2.063000000    -4.704000000
H     1.749000000     2.951000000    -4.479000000
H     2.290000000     1.584000000    -4.837000000
O     3.813000000     2.770000000     2.835000000
H     3.812000000     3.425000000     3.532000000
H     3.978000000     3.270000000     2.036000000
O     5.197000000    -1.054000000     0.155000000
H     4.842000000    -0.957000000    -0.728000000
H     5.744000000    -1.838000000     0.108000000
O    -3.205000000     3.256000000    -1.807000000
H    -3.819000000     3.008000000    -2.498000000
H    -2.398000000     3.477000000    -2.271000000
O     3.355000000     1.320000000    -6.855000000
H     3.424000000     2.068000000    -7.448000000
H     3.836000000     1.589000000    -6.073000000
O     3.880000000    -0.880000000     3.650000000
H     2.965000000    -0.705000000     3.867000000
H     4.142000000    -0.143000000     3.099000000
O    -2.574000000     1.677000000     7.039000000
H    -3.028000000     2.415000000     7.445000000
H    -2.056000000     1.295000000     7.748000000
O     1.556000000     3.722000000    -0.062000000
H     2.299000000     4.213000000     0.289000000
H     1.938000000     3.161000000    -0.737000000
O    -4.105000000     0.365000000    -2.292000000
H    -4.638000000     0.920000000    -1.722000000
H    -4.226000000    -0.519000000    -1.946000000
O    -0.569000000     5.050000000     1.267000000
H     0.064000000     4.624000000     0.689000000
H    -1.243000000     4.387000000     1.415000000
O    -4.487000000     1.576000000     4.288000000
H    -4.110000000     1.250000000     3.471000000
H    -3.866000000     1.302000000     4.964000000
O    -1.364000000     4.716000000    -3.419000000
H    -2.227000000     4.983000000    -3.735000000
H    -1.231000000     5.232000000    -2.624000000
O    -4.646000000    -2.070000000     4.069000000
H    -3.910000000    -1.527000000     3.789000000
H    -4.310000000    -2.560000000     4.820000000
O    -3.762000000    -3.313000000     6.313000000
H    -3.536000000    -4.235000000     6.189000000
H    -3.922000000    -3.229000000     7.252000000
O    -6.390000000     4.639000000     1.236000000
H    -6.307000000     4.880000000     0.314000000
H    -6.380000000     3.682000000     1.236000000
