161
-3044.81661
C    -0.187000000     1.446000000     0.298000000
H    -0.131000000     2.509000000     0.516000000
C     0.533000000     0.940000000    -0.761000000
H     1.142000000     1.612000000    -1.360000000
C     0.647000000    -0.438000000    -0.942000000
C     1.631000000    -0.997000000    -1.938000000
H     2.319000000    -1.688000000    -1.446000000
H     1.111000000    -1.706000000    -2.586000000
H     2.145000000    -0.288000000    -2.591000000
C     0.004000000    -1.270000000    -0.064000000
H     0.136000000    -2.344000000    -0.173000000
C    -0.768000000    -0.781000000     0.968000000
H    -1.352000000    -1.548000000     1.471000000
C    -0.889000000     0.590000000     1.134000000
C    -1.836000000     1.179000000     2.226000000
O    -2.349000000     0.438000000     3.011000000
O    -2.160000000     2.347000000     2.232000000
O    -5.399000000    -2.023000000     4.365000000
H    -4.999000000    -1.637000000     5.144000000
H    -5.254000000    -2.964000000     4.462000000
O    -1.858000000     0.754000000    -4.359000000
H    -1.870000000     1.708000000    -4.444000000
H    -1.303000000     0.456000000    -5.080000000
O    -5.801000000     4.459000000    -0.058000000
H    -5.609000000     3.578000000     0.264000000
H    -5.066000000     4.669000000    -0.634000000
O    -4.415000000     4.876000000     4.622000000
H    -4.921000000     4.967000000     3.815000000
H    -4.624000000     3.996000000     4.937000000
O    -6.302000000     2.392000000     3.560000000
H    -7.181000000     2.433000000     3.185000000
H    -5.735000000     2.761000000     2.884000000
O     3.804000000    -4.647000000    -2.682000000
H     4.524000000    -5.033000000    -3.182000000
H     3.370000000    -4.061000000    -3.302000000
O    -2.005000000    -2.715000000    -3.359000000
H    -2.187000000    -2.904000000    -2.439000000
H    -1.554000000    -1.871000000    -3.347000000
O     1.164000000     4.851000000     4.728000000
H     0.451000000     4.278000000     4.447000000
H     1.465000000     5.271000000     3.922000000
O     0.628000000     0.438000000     5.437000000
H     0.044000000     1.125000000     5.756000000
H     0.043000000    -0.215000000     5.053000000
O     0.636000000     4.643000000    -0.860000000
H     0.222000000     4.420000000    -0.026000000
H     0.284000000     5.505000000    -1.080000000
O    -4.597000000    -1.312000000    -1.406000000
H    -4.707000000    -1.104000000    -0.479000000
H    -3.831000000    -1.885000000    -1.434000000
O    -3.698000000     4.277000000    -1.846000000
H    -2.991000000     3.635000000    -1.788000000
H    -3.315000000     5.086000000    -1.508000000
O     6.081000000     1.630000000    -3.126000000
H     6.172000000     2.581000000    -3.184000000
H     6.542000000     1.395000000    -2.320000000
O     5.205000000    -0.889000000    -4.504000000
H     4.713000000    -0.281000000    -5.056000000
H     5.499000000    -0.357000000    -3.764000000
O    -1.981000000    -4.520000000    -5.315000000
H    -2.155000000    -3.863000000    -4.641000000
H    -1.803000000    -4.010000000    -6.106000000
O    -4.607000000     2.321000000     1.382000000
H    -4.721000000     1.478000000     0.943000000
H    -3.674000000     2.358000000     1.591000000
O     1.103000000     4.348000000    -5.685000000
H     1.458000000     4.478000000    -4.806000000
H     1.640000000     4.907000000    -6.246000000
O    -3.940000000    -3.839000000     1.609000000
H    -3.478000000    -4.296000000     2.312000000
H    -4.833000000    -4.181000000     1.647000000
O     2.008000000    -5.971000000    -0.830000000
H     2.428000000    -5.392000000    -1.466000000
H     1.424000000    -5.398000000    -0.333000000
O     5.666000000    -2.803000000    -1.386000000
H     4.959000000    -3.010000000    -0.775000000
H     5.221000000    -2.470000000    -2.165000000
O    -1.055000000     1.986000000     6.866000000
H    -1.489000000     2.839000000     6.863000000
H    -1.709000000     1.386000000     7.225000000
O    -2.117000000    -4.942000000     3.267000000
H    -1.367000000    -4.376000000     3.083000000
H    -1.986000000    -5.227000000     4.172000000
O     0.363000000    -0.050000000    -5.995000000
H     0.800000000     0.412000000    -5.280000000
H     1.070000000    -0.285000000    -6.596000000
O     3.307000000    -2.755000000    -4.906000000
H     3.705000000    -3.375000000    -5.518000000
H     4.005000000    -2.129000000    -4.713000000
O    -1.526000000    -1.244000000     4.824000000
H    -2.049000000    -0.727000000     4.213000000
H    -2.169000000    -1.749000000     5.323000000
O     3.669000000     0.722000000    -6.129000000
H     3.031000000     0.976000000    -5.462000000
H     4.185000000     1.514000000    -6.281000000
O     3.294000000    -0.447000000     1.132000000
H     4.029000000     0.002000000     0.714000000
H     2.594000000    -0.418000000     0.480000000
O     2.262000000     4.485000000    -3.091000000
H     2.966000000     3.909000000    -2.791000000
H     1.831000000     4.774000000    -2.286000000
O     3.603000000    -3.581000000     0.576000000
H     3.681000000    -2.971000000     1.309000000
H     3.572000000    -4.446000000     0.985000000
O    -4.780000000    -0.444000000     1.453000000
H    -4.732000000    -1.356000000     1.741000000
H    -4.091000000     0.000000000     1.948000000
O     5.340000000     1.173000000    -0.057000000
H     5.571000000     2.057000000     0.229000000
H     6.176000000     0.771000000    -0.293000000
O     0.108000000    -3.181000000     2.981000000
H     0.936000000    -3.297000000     3.447000000
H    -0.233000000    -2.346000000     3.302000000
O    -2.914000000     6.492000000    -0.253000000
H    -3.248000000     7.270000000     0.193000000
H    -2.217000000     6.169000000     0.319000000
O    -2.329000000    -3.650000000    -0.600000000
H    -2.957000000    -3.516000000     0.110000000
H    -2.111000000    -4.581000000    -0.553000000
O    -1.318000000     4.084000000     3.968000000
H    -1.937000000     4.612000000     4.473000000
H    -1.821000000     3.314000000     3.703000000
O    -0.030000000    -4.648000000     0.651000000
H     0.054000000    -4.123000000     1.447000000
H    -0.672000000    -4.176000000     0.120000000
O    -1.999000000    -6.177000000    -1.194000000
H    -2.810000000    -6.082000000    -1.692000000
H    -1.990000000    -7.096000000    -0.924000000
O     1.594000000     1.836000000    -4.374000000
H     1.049000000     2.399000000    -4.925000000
H     1.860000000     2.399000000    -3.647000000
O     3.071000000     1.997000000     3.686000000
H     2.392000000     1.607000000     3.134000000
H     2.645000000     2.126000000     4.534000000
O     2.773000000    -2.138000000     3.163000000
H     2.699000000    -1.333000000     2.650000000
H     3.660000000    -2.112000000     3.522000000
O     3.510000000     2.213000000    -1.913000000
H     4.144000000     1.856000000    -2.534000000
H     3.836000000     1.942000000    -1.055000000
O     2.772000000     3.251000000     0.948000000
H     2.612000000     3.477000000     0.032000000
H     3.723000000     3.295000000     1.042000000
O    -2.151000000     1.880000000    -1.974000000
H    -1.983000000     1.341000000    -2.747000000
H    -1.641000000     1.465000000    -1.277000000
O     1.257000000    -2.528000000    -6.893000000
H     1.771000000    -2.289000000    -6.121000000
H     1.251000000    -3.485000000    -6.890000000
O    -1.167000000     5.000000000     1.253000000
H    -0.606000000     5.276000000     1.978000000
H    -1.448000000     4.117000000     1.490000000
O    -3.614000000     2.060000000     4.903000000
H    -2.965000000     1.685000000     4.309000000
H    -4.457000000     1.839000000     4.507000000
O    -0.703000000    -7.137000000     1.845000000
H    -1.168000000    -6.863000000     2.635000000
H    -0.167000000    -6.380000000     1.608000000
O     2.018000000     5.721000000     2.267000000
H     2.904000000     6.068000000     2.362000000
H     2.093000000     5.055000000     1.583000000
