161
-3023.28870
C    -1.078000000     0.432000000     0.924000000
H    -1.835000000     0.880000000     1.564000000
C    -0.501000000     1.185000000    -0.077000000
H    -0.852000000     2.145000000    -0.449000000
C     0.517000000     0.663000000    -0.875000000
C     0.925000000     1.446000000    -2.106000000
H     0.867000000     2.513000000    -1.881000000
H     1.901000000     1.091000000    -2.447000000
H     0.155000000     1.314000000    -2.869000000
C     1.016000000    -0.613000000    -0.621000000
H     1.882000000    -0.906000000    -1.210000000
C     0.499000000    -1.372000000     0.426000000
H     0.905000000    -2.372000000     0.554000000
C    -0.550000000    -0.815000000     1.213000000
C    -1.214000000    -1.674000000     2.278000000
O    -0.922000000    -2.851000000     2.370000000
O    -1.716000000    -1.074000000     3.199000000
O     5.054000000     0.230000000    -2.699000000
H     5.490000000     0.566000000    -3.482000000
H     5.485000000     0.680000000    -1.973000000
O    -6.764000000     2.643000000     3.077000000
H    -5.828000000     2.490000000     2.952000000
H    -7.190000000     1.967000000     2.551000000
O     4.967000000    -0.834000000     1.099000000
H     5.166000000     0.068000000     0.848000000
H     5.541000000    -1.007000000     1.845000000
O    -2.698000000     0.528000000     6.939000000
H    -2.086000000     1.227000000     6.709000000
H    -3.170000000     0.346000000     6.126000000
O    -3.270000000     4.990000000     4.934000000
H    -2.892000000     4.168000000     4.621000000
H    -3.656000000     5.389000000     4.154000000
O    -0.116000000     5.586000000    -6.052000000
H    -0.719000000     6.180000000    -5.605000000
H     0.249000000     5.044000000    -5.352000000
O    -2.315000000    -1.204000000    -1.653000000
H    -1.430000000    -1.318000000    -1.308000000
H    -2.834000000    -0.931000000    -0.896000000
O    -2.508000000     5.617000000    -1.768000000
H    -3.235000000     6.185000000    -1.512000000
H    -2.646000000     4.811000000    -1.270000000
O    -4.289000000     1.910000000     2.075000000
H    -3.591000000     2.566000000     2.077000000
H    -4.350000000     1.628000000     1.163000000
O     3.338000000    -3.768000000     1.008000000
H     3.893000000    -3.157000000     1.492000000
H     2.484000000    -3.707000000     1.437000000
O     3.508000000    -2.596000000    -4.652000000
H     3.107000000    -3.227000000    -4.054000000
H     4.412000000    -2.896000000    -4.746000000
O     3.229000000     0.542000000     4.071000000
H     3.337000000     0.023000000     3.274000000
H     2.312000000     0.418000000     4.315000000
O     5.173000000     3.203000000     0.299000000
H     4.560000000     3.651000000    -0.284000000
H     5.547000000     3.902000000     0.836000000
O    -2.468000000     0.828000000    -3.586000000
H    -2.396000000     0.153000000    -2.912000000
H    -2.858000000     1.577000000    -3.134000000
O    -3.721000000     0.203000000     4.262000000
H    -3.987000000     0.839000000     3.598000000
H    -2.945000000    -0.220000000     3.892000000
O     2.308000000    -3.326000000     5.791000000
H     2.837000000    -2.784000000     5.206000000
H     1.702000000    -2.712000000     6.205000000
O     0.821000000    -1.675000000     7.194000000
H     0.758000000    -0.774000000     7.509000000
H    -0.007000000    -1.828000000     6.738000000
O     2.700000000    -0.284000000    -6.425000000
H     2.540000000     0.577000000    -6.040000000
H     3.068000000    -0.802000000    -5.708000000
O     4.561000000    -5.161000000    -0.955000000
H     4.897000000    -4.435000000    -1.481000000
H     3.995000000    -4.745000000    -0.306000000
O    -3.425000000     3.344000000    -6.458000000
H    -3.375000000     4.298000000    -6.515000000
H    -2.543000000     3.073000000    -6.202000000
O     2.141000000     2.246000000    -5.320000000
H     1.286000000     2.410000000    -4.921000000
H     2.772000000     2.487000000    -4.641000000
O     0.650000000    -6.417000000    -2.100000000
H    -0.202000000    -6.326000000    -1.672000000
H     1.226000000    -6.761000000    -1.417000000
O    -4.538000000     0.940000000    -0.537000000
H    -5.173000000     0.270000000    -0.284000000
H    -4.968000000     1.423000000    -1.243000000
O    -2.418000000    -5.458000000    -1.449000000
H    -3.082000000    -5.977000000    -1.904000000
H    -2.331000000    -4.664000000    -1.977000000
O    -2.400000000     3.997000000     2.421000000
H    -2.771000000     4.861000000     2.242000000
H    -1.497000000     4.054000000     2.108000000
O     1.183000000    -4.320000000     2.690000000
H     0.427000000    -3.797000000     2.424000000
H     1.485000000    -3.910000000     3.500000000
O    -1.134000000    -4.797000000     4.698000000
H    -1.678000000    -5.581000000     4.771000000
H    -1.004000000    -4.683000000     3.757000000
O     0.227000000    -3.201000000    -4.798000000
H    -0.555000000    -3.047000000    -4.268000000
H     0.848000000    -3.611000000    -4.196000000
O    -3.825000000    -0.916000000    -5.508000000
H    -3.067000000    -0.832000000    -4.930000000
H    -3.450000000    -1.049000000    -6.378000000
O     3.674000000     5.137000000    -1.410000000
H     3.019000000     5.819000000    -1.558000000
H     4.508000000     5.607000000    -1.385000000
O     5.011000000    -2.088000000    -1.585000000
H     4.950000000    -1.248000000    -2.040000000
H     4.685000000    -1.907000000    -0.703000000
O     0.348000000     0.652000000     4.362000000
H    -0.139000000     1.438000000     4.610000000
H    -0.301000000     0.092000000     3.936000000
O    -0.534000000     2.714000000     6.017000000
H    -1.118000000     3.123000000     6.655000000
H     0.342000000     2.831000000     6.384000000
O     2.099000000     2.721000000     1.307000000
H     2.944000000     2.416000000     0.975000000
H     1.544000000     1.941000000     1.302000000
O    -5.162000000    -2.250000000     5.507000000
H    -4.630000000    -1.623000000     5.017000000
H    -4.964000000    -3.096000000     5.107000000
O     1.634000000    -6.982000000     2.198000000
H     2.578000000    -6.846000000     2.269000000
H     1.250000000    -6.142000000     2.448000000
O    -0.905000000     2.176000000    -5.619000000
H    -1.076000000     1.348000000    -5.171000000
H    -0.615000000     1.920000000    -6.494000000
O    -0.154000000     4.205000000    -3.650000000
H    -0.799000000     4.607000000    -3.068000000
H    -0.659000000     3.580000000    -4.171000000
O     3.757000000     3.296000000    -3.601000000
H     3.397000000     4.072000000    -3.172000000
H     4.092000000     2.759000000    -2.883000000
O    -3.633000000    -7.636000000     1.515000000
H    -3.900000000    -7.733000000     0.601000000
H    -3.654000000    -6.692000000     1.672000000
O     2.597000000    -4.887000000    -3.288000000
H     1.947000000    -5.590000000    -3.267000000
H     2.953000000    -4.864000000    -2.400000000
O     0.108000000     4.430000000     0.517000000
H     0.872000000     3.868000000     0.644000000
H     0.466000000     5.247000000     0.171000000
O    -3.204000000    -2.306000000     8.040000000
H    -2.713000000    -1.806000000     7.388000000
H    -4.087000000    -2.371000000     7.677000000
O    -2.715000000    -4.232000000     1.015000000
H    -1.884000000    -3.820000000     1.250000000
H    -2.497000000    -4.816000000     0.289000000
O    -1.364000000    -2.206000000     5.526000000
H    -1.475000000    -1.882000000     4.632000000
H    -1.137000000    -3.130000000     5.419000000
O    -2.263000000    -3.561000000    -3.203000000
H    -2.547000000    -2.768000000    -2.749000000
H    -2.866000000    -3.642000000    -3.942000000
O    -4.288000000    -3.187000000     3.006000000
H    -3.535000000    -3.314000000     2.429000000
H    -4.728000000    -2.411000000     2.659000000
O     1.300000000    -6.332000000     5.210000000
H     0.926000000    -6.250000000     6.087000000
H     0.728000000    -5.803000000     4.655000000
