161
-3035.71654
C    -0.393000000    -1.181000000     0.669000000
H    -0.486000000    -2.168000000     1.115000000
C     0.941000000    -0.818000000     0.387000000
H     1.748000000    -1.516000000     0.596000000
C     1.140000000     0.397000000    -0.234000000
C     2.570000000     0.751000000    -0.494000000
H     2.894000000     1.779000000    -0.316000000
H     3.218000000     0.178000000     0.173000000
H     2.793000000     0.396000000    -1.502000000
C     0.084000000     1.261000000    -0.623000000
H     0.273000000     2.274000000    -0.972000000
C    -1.265000000     0.800000000    -0.291000000
H    -2.115000000     1.357000000    -0.676000000
C    -1.507000000    -0.414000000     0.334000000
C    -2.924000000    -0.922000000     0.573000000
O    -3.816000000    -0.172000000     0.211000000
O    -3.147000000    -2.002000000     1.044000000
O    -5.617000000     1.913000000     4.324000000
H    -5.139000000     2.392000000     5.002000000
H    -5.264000000     2.249000000     3.500000000
O     3.010000000    -2.519000000    -1.729000000
H     3.291000000    -3.347000000    -1.340000000
H     3.786000000    -2.192000000    -2.183000000
O    -3.549000000     3.944000000    -1.450000000
H    -2.718000000     4.283000000    -1.783000000
H    -3.906000000     4.659000000    -0.924000000
O     8.071000000    -0.200000000     1.388000000
H     7.158000000     0.040000000     1.545000000
H     8.575000000     0.541000000     1.724000000
O    -3.882000000     2.221000000     1.960000000
H    -3.771000000     1.460000000     1.389000000
H    -4.567000000     2.739000000     1.538000000
O     0.962000000    -0.286000000    -4.595000000
H     0.824000000    -0.844000000    -3.829000000
H     0.095000000    -0.210000000    -4.995000000
O     4.001000000     5.904000000    -3.705000000
H     4.099000000     6.712000000    -3.201000000
H     4.030000000     5.207000000    -3.049000000
O     4.559000000     4.301000000    -1.578000000
H     4.645000000     4.095000000    -0.647000000
H     4.522000000     3.448000000    -2.010000000
O    -1.077000000     3.400000000     1.504000000
H    -1.758000000     2.728000000     1.473000000
H    -0.323000000     2.997000000     1.075000000
O     2.870000000     5.271000000     1.899000000
H     3.570000000     5.768000000     2.323000000
H     2.144000000     5.301000000     2.522000000
O    -2.279000000     1.523000000     4.241000000
H    -2.510000000     2.055000000     5.002000000
H    -2.973000000     1.698000000     3.605000000
O     4.047000000     0.804000000     4.540000000
H     3.724000000     1.705000000     4.540000000
H     3.258000000     0.267000000     4.461000000
O     1.270000000    -4.862000000     2.442000000
H     0.696000000    -5.513000000     2.037000000
H     0.706000000    -4.101000000     2.584000000
O    -1.914000000    -3.907000000    -1.816000000
H    -2.768000000    -3.479000000    -1.752000000
H    -1.288000000    -3.184000000    -1.874000000
O    -4.493000000    -2.583000000    -1.469000000
H    -4.538000000    -2.022000000    -0.695000000
H    -5.017000000    -3.350000000    -1.239000000
O     6.078000000     0.895000000    -4.644000000
H     5.665000000     1.545000000    -5.213000000
H     5.471000000     0.799000000    -3.910000000
O     8.013000000     2.888000000    -1.128000000
H     7.219000000     2.931000000    -0.595000000
H     8.708000000     3.197000000    -0.548000000
O     5.990000000    -2.172000000     1.203000000
H     6.130000000    -3.114000000     1.300000000
H     6.799000000    -1.850000000     0.805000000
O    -2.117000000    -4.058000000     2.359000000
H    -2.632000000    -3.409000000     1.879000000
H    -1.517000000    -3.538000000     2.894000000
O    -1.413000000     4.849000000    -2.723000000
H    -1.206000000     4.185000000    -3.381000000
H    -0.789000000     5.556000000    -2.893000000
O    -7.430000000    -2.425000000    -0.830000000
H    -7.261000000    -1.767000000    -1.505000000
H    -7.958000000    -3.090000000    -1.271000000
O     3.935000000    -4.658000000     2.554000000
H     2.984000000    -4.645000000     2.447000000
H     4.123000000    -3.903000000     3.112000000
O    -4.394000000    -0.659000000    -3.611000000
H    -4.704000000    -1.485000000    -3.238000000
H    -4.382000000    -0.052000000    -2.871000000
O    -5.487000000    -3.862000000     1.778000000
H    -4.734000000    -3.305000000     1.578000000
H    -5.563000000    -4.442000000     1.020000000
O    -4.807000000     1.301000000    -1.639000000
H    -4.256000000     2.080000000    -1.716000000
H    -4.451000000     0.830000000    -0.885000000
O     5.300000000    -2.119000000    -2.806000000
H     5.643000000    -1.370000000    -2.318000000
H     6.021000000    -2.748000000    -2.818000000
O     3.578000000     2.582000000    -4.025000000
H     2.773000000     2.066000000    -3.980000000
H     3.782000000     2.626000000    -4.959000000
O    -5.932000000     3.433000000    -3.402000000
H    -6.198000000     3.871000000    -2.593000000
H    -5.725000000     2.538000000    -3.133000000
O     5.723000000     0.311000000    -1.820000000
H     5.086000000     0.222000000    -1.112000000
H     6.335000000     0.978000000    -1.510000000
O     5.579000000     0.443000000     2.215000000
H     4.862000000     0.724000000     2.784000000
H     5.524000000    -0.512000000     2.214000000
O     2.743000000     2.531000000     2.537000000
H     1.799000000     2.415000000     2.429000000
H     2.939000000     3.343000000     2.070000000
O    -6.187000000    -0.836000000     1.027000000
H    -5.260000000    -0.734000000     0.809000000
H    -6.495000000    -1.529000000     0.442000000
O    -7.940000000     1.097000000     1.133000000
H    -8.054000000     0.937000000     2.070000000
H    -7.406000000     0.363000000     0.828000000
O    -0.637000000    -2.561000000     4.204000000
H    -0.360000000    -3.049000000     4.980000000
H    -1.206000000    -1.871000000     4.544000000
O    -7.121000000     0.097000000    -2.550000000
H    -7.096000000     0.286000000    -3.488000000
H    -6.450000000     0.666000000    -2.174000000
O    -1.263000000     6.569000000     0.988000000
H    -1.233000000     5.618000000     0.887000000
H    -0.347000000     6.843000000     0.952000000
O    -0.959000000    -6.409000000    -1.242000000
H    -1.460000000    -5.593000000    -1.251000000
H    -1.533000000    -7.036000000    -0.802000000
O     4.008000000    -2.210000000     3.955000000
H     3.209000000    -1.703000000     4.098000000
H     4.326000000    -1.920000000     3.100000000
O    -6.091000000     3.189000000     0.600000000
H    -6.308000000     3.146000000    -0.331000000
H    -6.866000000     2.843000000     1.043000000
O     0.415000000    -2.570000000    -1.960000000
H     1.331000000    -2.842000000    -2.028000000
H     0.427000000    -1.843000000    -1.337000000
O     1.727000000    -0.733000000     4.046000000
H     1.137000000     0.019000000     4.106000000
H     1.145000000    -1.491000000     3.994000000
O    -2.968000000    -6.271000000     3.440000000
H    -2.609000000    -5.953000000     4.268000000
H    -2.738000000    -5.595000000     2.803000000
O     1.195000000     6.935000000     0.270000000
H     1.608000000     6.116000000     0.546000000
H     1.796000000     7.618000000     0.568000000
O     3.744000000    -4.944000000    -0.533000000
H     3.077000000    -5.604000000    -0.722000000
H     3.895000000    -5.019000000     0.410000000
O     5.487000000     3.030000000     0.611000000
H     5.629000000     3.711000000     1.269000000
H     5.001000000     2.347000000     1.074000000
O    -7.801000000    -3.213000000     2.755000000
H    -6.880000000    -3.390000000     2.562000000
H    -8.195000000    -3.032000000     1.902000000
O    -4.978000000    -5.208000000    -0.631000000
H    -5.787000000    -5.711000000    -0.543000000
H    -4.281000000    -5.860000000    -0.558000000
O     0.857000000     3.687000000    -4.541000000
H     0.740000000     3.237000000    -5.378000000
H     1.805000000     3.708000000    -4.411000000
