161
-3058.38240
C    -1.192000000     0.008000000    -0.907000000
H    -2.085000000    -0.074000000    -1.520000000
C    -0.076000000    -0.799000000    -1.027000000
H    -0.024000000    -1.534000000    -1.826000000
C     1.023000000    -0.632000000    -0.245000000
C     2.316000000    -1.433000000    -0.375000000
H     3.153000000    -1.020000000     0.192000000
H     2.053000000    -2.390000000     0.082000000
H     2.588000000    -1.603000000    -1.419000000
C     0.949000000     0.241000000     0.899000000
H     1.732000000     0.284000000     1.651000000
C    -0.235000000     0.955000000     1.032000000
H    -0.303000000     1.597000000     1.908000000
C    -1.285000000     0.852000000     0.182000000
C    -2.619000000     1.483000000     0.474000000
O    -2.642000000     2.326000000     1.378000000
O    -3.353000000     1.743000000    -0.486000000
O    -7.650000000     4.224000000    -2.421000000
H    -6.753000000     3.906000000    -2.318000000
H    -8.194000000     3.445000000    -2.306000000
O     2.196000000    -5.753000000    -1.748000000
H     2.961000000    -5.898000000    -1.192000000
H     2.206000000    -6.484000000    -2.366000000
O     6.919000000    -0.288000000     2.230000000
H     6.859000000     0.664000000     2.152000000
H     6.661000000    -0.472000000     3.133000000
O    -5.105000000     3.840000000    -1.921000000
H    -4.614000000     3.847000000    -2.743000000
H    -4.721000000     3.122000000    -1.418000000
O     4.544000000    -5.500000000    -0.326000000
H     5.174000000    -5.094000000     0.270000000
H     4.781000000    -5.164000000    -1.190000000
O     2.254000000     3.028000000     1.336000000
H     1.988000000     3.934000000     1.178000000
H     1.923000000     2.830000000     2.212000000
O     2.024000000     2.010000000    -1.537000000
H     1.858000000     2.301000000    -0.641000000
H     2.977000000     1.941000000    -1.595000000
O    -6.781000000    -0.153000000    -1.984000000
H    -6.103000000    -0.815000000    -2.122000000
H    -6.931000000     0.221000000    -2.852000000
O    -6.633000000     2.088000000     3.938000000
H    -6.142000000     2.595000000     3.292000000
H    -6.572000000     1.184000000     3.631000000
O     1.302000000    -2.961000000     2.662000000
H     1.524000000    -3.682000000     2.073000000
H     2.142000000    -2.685000000     3.029000000
O    -6.215000000    -0.105000000     2.302000000
H    -5.270000000    -0.115000000     2.456000000
H    -6.330000000     0.487000000     1.560000000
O     8.426000000     0.032000000    -0.613000000
H     7.499000000    -0.205000000    -0.622000000
H     8.804000000    -0.456000000    -1.345000000
O     0.899000000    -1.348000000    -4.235000000
H     1.716000000    -1.323000000    -3.737000000
H     0.950000000    -0.590000000    -4.818000000
O    -1.713000000    -0.922000000    -3.878000000
H    -2.010000000    -1.755000000    -3.510000000
H    -0.848000000    -1.116000000    -4.240000000
O     1.293000000    -3.559000000    -5.964000000
H     2.038000000    -4.122000000    -5.755000000
H     1.269000000    -2.919000000    -5.252000000
O     1.229000000     5.621000000     1.212000000
H     0.292000000     5.429000000     1.262000000
H     1.424000000     6.078000000     2.030000000
O    -7.704000000     3.541000000     0.337000000
H    -7.182000000     2.739000000     0.321000000
H    -7.883000000     3.728000000    -0.585000000
O    -5.118000000    -2.425000000    -1.949000000
H    -5.400000000    -2.923000000    -1.182000000
H    -4.166000000    -2.376000000    -1.867000000
O     4.727000000     4.440000000     1.105000000
H     5.147000000     4.625000000     0.265000000
H     3.968000000     3.901000000     0.880000000
O    -0.172000000     2.315000000    -3.124000000
H     0.488000000     1.983000000    -2.514000000
H    -0.230000000     1.642000000    -3.802000000
O     4.363000000    -2.084000000    -5.207000000
H     4.250000000    -1.249000000    -4.754000000
H     3.800000000    -2.694000000    -4.729000000
O     4.273000000     0.320000000     2.796000000
H     4.927000000     0.892000000     2.393000000
H     3.467000000     0.835000000     2.788000000
O    -5.030000000     3.556000000     2.192000000
H    -4.286000000     3.160000000     1.739000000
H    -5.291000000     4.285000000     1.630000000
O    -1.637000000     4.869000000     0.937000000
H    -1.736000000     3.948000000     1.179000000
H    -1.489000000     4.854000000    -0.009000000
O     5.869000000    -3.646000000     1.332000000
H     6.425000000    -3.416000000     0.588000000
H     6.475000000    -3.720000000     2.070000000
O     4.094000000     0.168000000    -3.924000000
H     4.070000000     0.385000000    -2.992000000
H     4.148000000     1.015000000    -4.366000000
O     3.898000000    -2.422000000     3.148000000
H     4.603000000    -2.795000000     2.619000000
H     4.071000000    -1.480000000     3.148000000
O    -4.003000000     0.882000000     4.054000000
H    -3.452000000     1.540000000     3.631000000
H    -4.429000000     1.351000000     4.771000000
O     6.722000000    -3.219000000    -1.266000000
H     7.595000000    -3.548000000    -1.050000000
H     6.775000000    -2.989000000    -2.193000000
O    -5.864000000     1.309000000    -0.057000000
H    -4.926000000     1.481000000    -0.133000000
H    -6.096000000     0.878000000    -0.879000000
O    -5.189000000     5.598000000     0.531000000
H    -5.232000000     4.885000000    -0.106000000
H    -4.453000000     6.136000000     0.240000000
O    -1.067000000    -2.112000000     1.641000000
H    -1.044000000    -1.773000000     0.746000000
H    -0.146000000    -2.180000000     1.894000000
O     5.856000000    -0.740000000    -0.207000000
H     6.049000000    -0.578000000     0.717000000
H     5.849000000    -1.694000000    -0.286000000
O     2.990000000    -6.231000000     1.836000000
H     2.163000000    -6.049000000     1.390000000
H     3.664000000    -5.935000000     1.223000000
O    -1.384000000     2.780000000     3.646000000
H    -1.729000000     2.621000000     2.768000000
H    -1.515000000     3.717000000     3.789000000
O     4.835000000     1.334000000    -1.685000000
H     5.604000000     1.876000000    -1.863000000
H     5.187000000     0.550000000    -1.264000000
O    -4.262000000     3.600000000    -4.453000000
H    -4.042000000     2.791000000    -3.991000000
H    -3.584000000     3.685000000    -5.124000000
O    -3.825000000     1.388000000    -3.112000000
H    -3.267000000     0.622000000    -3.245000000
H    -3.636000000     1.670000000    -2.217000000
O    -2.692000000    -3.618000000    -2.805000000
H    -3.376000000    -3.862000000    -3.428000000
H    -2.484000000    -4.432000000    -2.346000000
O    -4.798000000     5.056000000     4.323000000
H    -5.557000000     5.623000000     4.188000000
H    -5.022000000     4.244000000     3.868000000
O     1.504000000     2.518000000     4.005000000
H     1.684000000     2.492000000     4.945000000
H     0.556000000     2.402000000     3.940000000
O     3.034000000    -3.623000000    -3.288000000
H     3.743000000    -4.239000000    -3.103000000
H     2.292000000    -3.952000000    -2.780000000
O     0.573000000    -4.895000000     0.529000000
H    -0.361000000    -4.867000000     0.324000000
H     0.993000000    -5.131000000    -0.298000000
O    -0.419000000    -0.911000000     5.014000000
H    -0.037000000    -0.797000000     4.144000000
H    -1.056000000    -1.617000000     4.906000000
O    -1.986000000     5.417000000     3.752000000
H    -2.930000000     5.458000000     3.900000000
H    -1.881000000     5.598000000     2.818000000
O    -3.626000000    -1.254000000     2.284000000
H    -3.654000000    -0.601000000     2.983000000
H    -2.693000000    -1.420000000     2.147000000
O    -1.836000000     4.202000000    -1.768000000
H    -2.358000000     3.415000000    -1.615000000
H    -1.110000000     3.905000000    -2.317000000
O    -2.766000000     6.706000000    -2.070000000
H    -2.918000000     7.107000000    -1.214000000
H    -2.389000000     5.850000000    -1.869000000
