161
-3066.54486
C     0.499000000    -0.891000000     1.029000000
H     0.912000000    -1.653000000     1.686000000
C     1.146000000    -0.556000000    -0.171000000
H     2.103000000    -1.019000000    -0.396000000
C     0.583000000     0.290000000    -1.108000000
C     1.254000000     0.596000000    -2.421000000
H     1.347000000     1.681000000    -2.507000000
H     2.256000000     0.163000000    -2.413000000
H     0.595000000     0.285000000    -3.234000000
C    -0.697000000     0.801000000    -0.796000000
H    -1.196000000     1.544000000    -1.413000000
C    -1.310000000     0.493000000     0.425000000
H    -2.232000000     0.985000000     0.726000000
C    -0.710000000    -0.335000000     1.351000000
C    -1.393000000    -0.747000000     2.700000000
O    -2.274000000    -0.051000000     3.140000000
O    -0.889000000    -1.584000000     3.403000000
O     5.154000000    -4.369000000    -2.385000000
H     5.200000000    -3.913000000    -3.226000000
H     4.486000000    -3.893000000    -1.891000000
O     1.079000000     4.432000000    -3.403000000
H     1.088000000     4.512000000    -4.356000000
H     1.999000000     4.324000000    -3.163000000
O    -1.003000000    -2.565000000    -1.101000000
H    -0.562000000    -1.971000000    -0.493000000
H    -0.917000000    -3.428000000    -0.698000000
O     2.107000000     1.149000000    -5.539000000
H     1.667000000     0.635000000    -4.862000000
H     1.955000000     0.660000000    -6.348000000
O     1.580000000    -3.069000000    -2.371000000
H     2.221000000    -3.267000000    -1.689000000
H     0.731000000    -3.186000000    -1.944000000
O    -5.584000000     0.293000000    -3.814000000
H    -4.833000000     0.164000000    -3.234000000
H    -5.709000000    -0.557000000    -4.237000000
O    -5.645000000    -1.626000000    -1.011000000
H    -4.839000000    -1.225000000    -1.338000000
H    -6.135000000    -0.899000000    -0.628000000
O    -0.511000000     4.314000000    -1.303000000
H    -1.129000000     3.589000000    -1.388000000
H    -0.065000000     4.349000000    -2.150000000
O     1.032000000    -3.220000000     3.964000000
H     0.930000000    -3.334000000     4.909000000
H     0.316000000    -2.636000000     3.715000000
O    -4.282000000     4.831000000     0.131000000
H    -3.818000000     5.657000000     0.266000000
H    -4.490000000     4.823000000    -0.803000000
O     4.939000000     2.308000000    -2.055000000
H     5.834000000     2.159000000    -2.361000000
H     4.389000000     2.078000000    -2.804000000
O     2.924000000    -1.879000000    -7.034000000
H     2.522000000    -2.292000000    -6.270000000
H     3.398000000    -2.588000000    -7.468000000
O     3.590000000    -1.077000000     3.197000000
H     3.174000000    -1.812000000     3.648000000
H     4.474000000    -1.041000000     3.561000000
O     0.696000000     6.755000000    -0.785000000
H     0.232000000     5.932000000    -0.940000000
H     1.622000000     6.528000000    -0.873000000
O     1.739000000     3.833000000    -6.410000000
H     1.969000000     2.996000000    -6.006000000
H     0.789000000     3.793000000    -6.521000000
O    -4.658000000    -2.819000000     1.243000000
H    -4.994000000    -2.164000000     1.854000000
H    -5.138000000    -2.656000000     0.430000000
O    -0.462000000     0.239000000     6.396000000
H    -1.250000000     0.729000000     6.631000000
H    -0.273000000     0.507000000     5.497000000
O    -5.652000000     1.735000000     5.570000000
H    -4.769000000     1.364000000     5.568000000
H    -5.628000000     2.405000000     6.254000000
O    -0.289000000    -4.625000000     0.678000000
H    -0.924000000    -4.271000000     1.300000000
H     0.420000000    -4.964000000     1.225000000
O     5.167000000    -1.876000000     0.542000000
H     4.587000000    -1.279000000     1.016000000
H     6.020000000    -1.444000000     0.557000000
O     0.853000000    -6.470000000     3.819000000
H    -0.063000000    -6.281000000     4.023000000
H     1.013000000    -7.329000000     4.210000000
O    -2.077000000    -5.796000000     4.596000000
H    -2.721000000    -5.665000000     3.900000000
H    -1.764000000    -4.915000000     4.801000000
O    -6.244000000     3.367000000     1.556000000
H    -5.863000000     2.489000000     1.531000000
H    -5.536000000     3.944000000     1.268000000
O    -2.189000000    -2.921000000     5.127000000
H    -2.482000000    -2.477000000     5.923000000
H    -1.816000000    -2.223000000     4.587000000
O    -0.041000000     1.882000000     3.618000000
H    -0.579000000     1.377000000     3.008000000
H    -0.015000000     2.762000000     3.243000000
O    -3.639000000    -6.191000000     2.413000000
H    -3.209000000    -5.405000000     2.077000000
H    -4.182000000    -6.497000000     1.687000000
O     3.328000000    -4.017000000    -0.349000000
H     2.749000000    -4.397000000     0.312000000
H     3.642000000    -3.204000000     0.047000000
O     5.347000000    -1.561000000    -3.189000000
H     6.062000000    -0.964000000    -2.970000000
H     4.716000000    -1.016000000    -3.660000000
O    -0.205000000    -1.280000000     8.612000000
H     0.003000000    -0.621000000     7.950000000
H    -1.134000000    -1.467000000     8.479000000
O     2.358000000    -4.926000000     1.963000000
H     2.139000000    -4.120000000     2.430000000
H     1.966000000    -5.622000000     2.490000000
O    -0.781000000     2.805000000    -7.023000000
H    -1.424000000     3.471000000    -6.777000000
H    -1.261000000     2.212000000    -7.601000000
O     3.540000000     3.709000000     1.419000000
H     4.361000000     3.276000000     1.188000000
H     3.043000000     3.043000000     1.894000000
O    -1.034000000     3.969000000     1.849000000
H    -1.695000000     4.649000000     1.721000000
H    -0.379000000     4.141000000     1.172000000
O    -0.637000000    -1.013000000    -6.067000000
H    -0.203000000    -0.782000000    -6.888000000
H    -1.025000000    -1.872000000    -6.235000000
O    -3.455000000     0.276000000     5.403000000
H    -3.036000000    -0.015000000     4.593000000
H    -3.067000000    -0.274000000     6.084000000
O    -3.720000000     4.106000000     4.213000000
H    -3.092000000     3.476000000     3.861000000
H    -4.481000000     3.577000000     4.454000000
O     4.644000000     0.948000000    -4.874000000
H     5.058000000     1.301000000    -5.662000000
H     3.714000000     0.895000000    -5.095000000
O     3.267000000     4.530000000    -1.145000000
H     3.791000000     3.766000000    -1.386000000
H     3.146000000     4.449000000    -0.199000000
O     0.092000000    -3.561000000     6.797000000
H    -0.611000000    -3.396000000     6.169000000
H     0.220000000    -2.721000000     7.239000000
O    -2.903000000    -1.878000000     7.483000000
H    -3.321000000    -1.091000000     7.833000000
H    -3.132000000    -2.568000000     8.105000000
O    -6.839000000    -0.800000000     2.157000000
H    -6.330000000    -0.211000000     2.714000000
H    -6.774000000    -0.417000000     1.282000000
O    -3.222000000    -1.002000000    -2.459000000
H    -2.489000000    -1.160000000    -1.865000000
H    -3.223000000    -1.757000000    -3.046000000
O    -1.462000000     3.270000000     6.083000000
H    -1.407000000     2.919000000     5.194000000
H    -1.221000000     4.192000000     5.991000000
O    -2.416000000    -3.699000000     2.238000000
H    -3.057000000    -3.343000000     1.622000000
H    -2.241000000    -2.979000000     2.844000000
O     2.583000000     1.344000000     3.083000000
H     2.623000000     0.399000000     2.938000000
H     1.670000000     1.512000000     3.318000000
O    -2.497000000     0.581000000    -4.938000000
H    -1.879000000    -0.024000000    -5.347000000
H    -2.519000000     0.316000000    -4.018000000
O     1.771000000    -3.406000000    -4.951000000
H     1.665000000    -3.113000000    -4.046000000
H     2.160000000    -4.277000000    -4.876000000
O    -4.811000000     0.932000000     2.850000000
H    -3.882000000     0.700000000     2.851000000
H    -5.010000000     1.126000000     3.766000000
