161
-3048.05889
C     0.736000000    -1.349000000    -0.059000000
H     1.310000000    -2.269000000    -0.135000000
C     1.142000000    -0.135000000    -0.680000000
H     2.043000000    -0.164000000    -1.287000000
C     0.351000000     0.985000000    -0.579000000
C     0.646000000     2.303000000    -1.325000000
H     0.534000000     3.152000000    -0.647000000
H     1.661000000     2.404000000    -1.714000000
H    -0.014000000     2.495000000    -2.174000000
C    -0.945000000     0.912000000    -0.006000000
H    -1.607000000     1.761000000    -0.155000000
C    -1.210000000    -0.180000000     0.822000000
H    -2.138000000    -0.110000000     1.384000000
C    -0.341000000    -1.300000000     0.838000000
C    -0.642000000    -2.531000000     1.662000000
O    -1.742000000    -2.566000000     2.242000000
O     0.214000000    -3.400000000     1.809000000
O     1.383000000     0.605000000     2.503000000
H     2.151000000     0.034000000     2.497000000
H     1.030000000     0.541000000     1.615000000
O     1.278000000    -4.128000000    -2.185000000
H     2.071000000    -3.628000000    -2.376000000
H     1.483000000    -4.605000000    -1.381000000
O    -3.644000000     2.780000000     1.326000000
H    -3.285000000     2.289000000     0.587000000
H    -4.559000000     2.934000000     1.089000000
O    -5.845000000    -0.159000000     1.861000000
H    -5.330000000    -0.108000000     1.056000000
H    -6.112000000     0.745000000     2.031000000
O     5.149000000    -0.871000000    -0.266000000
H     6.075000000    -0.962000000    -0.039000000
H     5.125000000    -0.143000000    -0.887000000
O    -2.875000000     2.570000000     3.856000000
H    -2.778000000     2.576000000     2.904000000
H    -2.267000000     3.242000000     4.163000000
O     0.952000000    -4.417000000     5.586000000
H     0.438000000    -3.921000000     6.223000000
H     0.305000000    -4.759000000     4.970000000
O    -3.612000000     4.184000000    -1.947000000
H    -4.126000000     4.598000000    -1.253000000
H    -4.266000000     3.838000000    -2.554000000
O     4.559000000     0.700000000    -2.680000000
H     3.863000000     0.733000000    -3.336000000
H     4.602000000     1.591000000    -2.331000000
O     4.133000000    -4.275000000     0.626000000
H     3.518000000    -4.264000000     1.359000000
H     4.985000000    -4.094000000     1.025000000
O     4.166000000    -1.837000000    -4.981000000
H     3.502000000    -1.588000000    -4.339000000
H     4.451000000    -2.709000000    -4.705000000
O     0.343000000     5.795000000     1.763000000
H    -0.442000000     5.587000000     1.256000000
H     0.724000000     4.942000000     1.975000000
O     0.922000000    -5.814000000    -4.297000000
H     1.208000000    -5.338000000    -3.517000000
H     1.703000000    -5.861000000    -4.848000000
O     6.480000000    -0.779000000    -3.865000000
H     5.915000000    -0.212000000    -3.340000000
H     5.972000000    -1.583000000    -3.979000000
O    -0.450000000    -2.155000000     7.112000000
H    -0.070000000    -1.832000000     6.295000000
H    -1.301000000    -1.721000000     7.169000000
O     1.414000000    -5.321000000     0.353000000
H     1.123000000    -4.736000000     1.052000000
H     0.629000000    -5.814000000     0.111000000
O    -1.725000000     5.365000000    -0.048000000
H    -2.058000000     4.697000000    -0.647000000
H    -1.983000000     6.195000000    -0.448000000
O     2.393000000    -4.176000000     3.266000000
H     1.595000000    -3.788000000     2.906000000
H     2.185000000    -4.340000000     4.186000000
O    -0.836000000    -6.879000000    -0.152000000
H    -1.225000000    -7.385000000    -0.865000000
H    -1.575000000    -6.422000000     0.249000000
O    -1.588000000    -7.523000000     4.486000000
H    -2.387000000    -7.629000000     3.969000000
H    -1.313000000    -6.622000000     4.320000000
O    -3.298000000    -4.254000000     3.296000000
H    -2.990000000    -3.489000000     2.809000000
H    -3.779000000    -3.887000000     4.038000000
O    -1.444000000    -3.431000000    -2.430000000
H    -1.869000000    -3.300000000    -1.582000000
H    -0.537000000    -3.644000000    -2.213000000
O    -5.696000000     2.671000000     3.798000000
H    -5.780000000     2.780000000     4.745000000
H    -4.787000000     2.401000000     3.668000000
O    -0.931000000    -0.864000000     4.459000000
H    -0.198000000    -0.430000000     4.024000000
H    -1.227000000    -1.523000000     3.830000000
O    -3.038000000     5.382000000     2.540000000
H    -3.119000000     4.471000000     2.821000000
H    -2.731000000     5.328000000     1.635000000
O     3.666000000    -0.943000000     2.213000000
H     3.788000000    -1.786000000     2.650000000
H     4.161000000    -1.021000000     1.398000000
O    -5.343000000    -2.716000000     1.457000000
H    -5.574000000    -1.857000000     1.811000000
H    -5.173000000    -3.256000000     2.230000000
O     4.929000000    -5.335000000    -1.655000000
H     4.461000000    -5.111000000    -0.851000000
H     5.803000000    -5.592000000    -1.359000000
O     1.971000000     3.463000000    -5.350000000
H     1.499000000     4.294000000    -5.306000000
H     1.363000000     2.864000000    -5.784000000
O     2.821000000     1.001000000    -4.779000000
H     2.476000000     1.890000000    -4.865000000
H     2.084000000     0.435000000    -5.007000000
O    -4.483000000    -0.021000000    -0.904000000
H    -4.066000000    -0.828000000    -1.203000000
H    -4.566000000     0.513000000    -1.694000000
O     0.770000000    -0.782000000    -5.542000000
H     0.805000000    -1.589000000    -6.057000000
H     0.055000000    -0.925000000    -4.922000000
O     0.807000000     6.939000000    -2.823000000
H     0.921000000     6.071000000    -3.209000000
H     1.684000000     7.323000000    -2.832000000
O    -1.613000000     4.023000000    -3.992000000
H    -1.676000000     3.068000000    -3.994000000
H    -2.292000000     4.307000000    -3.380000000
O     4.171000000    -6.663000000     3.044000000
H     3.445000000    -6.114000000     2.748000000
H     4.650000000    -6.113000000     3.664000000
O    -1.374000000     1.534000000    -4.916000000
H    -0.765000000     1.855000000    -5.582000000
H    -1.232000000     0.588000000    -4.898000000
O    -4.170000000    -2.095000000     5.620000000
H    -3.394000000    -1.546000000     5.736000000
H    -4.904000000    -1.523000000     5.847000000
O     4.725000000     3.581000000    -4.814000000
H     3.781000000     3.734000000    -4.789000000
H     4.950000000     3.328000000    -3.918000000
O     5.065000000     3.552000000    -1.888000000
H     5.288000000     4.458000000    -2.099000000
H     5.780000000     3.254000000    -1.325000000
O     3.702000000     4.377000000     0.865000000
H     3.436000000     4.292000000    -0.050000000
H     4.340000000     5.090000000     0.864000000
O     0.037000000     5.769000000    -5.583000000
H    -0.244000000     6.669000000    -5.419000000
H    -0.581000000     5.231000000    -5.087000000
O    -3.122000000    -5.817000000     1.048000000
H    -3.654000000    -5.229000000     0.512000000
H    -3.186000000    -5.457000000     1.933000000
O    -4.563000000    -2.829000000    -1.416000000
H    -4.761000000    -3.755000000    -1.551000000
H    -4.912000000    -2.634000000    -0.546000000
O    -0.815000000    -5.086000000     3.729000000
H    -0.498000000    -4.408000000     3.132000000
H    -1.753000000    -4.915000000     3.811000000
O     1.123000000     3.381000000     3.211000000
H     0.726000000     2.560000000     3.500000000
H     1.961000000     3.120000000     2.829000000
O    -1.277000000    -1.030000000    -3.899000000
H    -1.032000000    -1.922000000    -3.652000000
H    -2.020000000    -0.821000000    -3.332000000
O     3.772000000    -2.586000000    -1.864000000
H     4.178000000    -2.154000000    -1.112000000
H     3.916000000    -3.520000000    -1.709000000
O    -2.829000000     0.503000000     5.870000000
H    -3.393000000     1.125000000     5.411000000
H    -2.221000000     0.192000000     5.200000000
