161
-3038.58703
C     0.712000000    -1.233000000     0.263000000
H     1.470000000    -1.956000000     0.553000000
C     1.178000000    -0.063000000    -0.375000000
H     2.212000000    -0.048000000    -0.712000000
C     0.416000000     1.008000000    -0.645000000
C     0.948000000     2.230000000    -1.272000000
H     0.295000000     2.523000000    -2.097000000
H     1.060000000     3.100000000    -0.622000000
H     1.971000000     2.019000000    -1.591000000
C    -0.882000000     0.939000000    -0.170000000
H    -1.518000000     1.776000000    -0.446000000
C    -1.400000000    -0.160000000     0.457000000
H    -2.448000000    -0.275000000     0.723000000
C    -0.610000000    -1.321000000     0.693000000
C    -1.019000000    -2.516000000     1.555000000
O    -2.212000000    -2.756000000     1.681000000
O    -0.173000000    -3.269000000     1.998000000
O     0.288000000     1.597000000     3.278000000
H     0.814000000     2.396000000     3.323000000
H    -0.317000000     1.750000000     2.551000000
O     0.040000000     0.898000000    -7.002000000
H     0.306000000     1.653000000    -7.527000000
H     0.520000000     0.997000000    -6.180000000
O    -4.451000000     2.105000000     2.232000000
H    -4.918000000     1.971000000     1.407000000
H    -3.717000000     2.674000000     2.002000000
O     2.780000000    -0.836000000    -5.432000000
H     3.080000000    -0.980000000    -4.534000000
H     2.266000000    -0.030000000    -5.386000000
O    -2.242000000     6.033000000    -4.861000000
H    -1.901000000     5.795000000    -3.998000000
H    -1.721000000     5.515000000    -5.475000000
O    -4.536000000    -0.378000000     3.760000000
H    -3.599000000    -0.514000000     3.899000000
H    -4.620000000     0.561000000     3.594000000
O     0.435000000    -6.369000000     5.047000000
H    -0.117000000    -5.727000000     4.599000000
H     1.317000000    -5.998000000     5.003000000
O    -3.840000000     4.208000000    -1.552000000
H    -4.433000000     4.866000000    -1.915000000
H    -2.984000000     4.426000000    -1.922000000
O     5.032000000     3.416000000    -2.493000000
H     5.340000000     4.298000000    -2.703000000
H     4.216000000     3.324000000    -2.986000000
O     4.351000000    -0.834000000    -2.959000000
H     4.612000000    -0.273000000    -2.228000000
H     3.994000000    -1.619000000    -2.542000000
O     2.483000000    -0.291000000     3.263000000
H     1.797000000     0.150000000     2.761000000
H     2.135000000    -1.168000000     3.426000000
O     5.058000000    -1.135000000     3.185000000
H     4.111000000    -1.003000000     3.154000000
H     5.318000000    -0.799000000     4.043000000
O     4.126000000    -3.947000000     2.651000000
H     3.255000000    -3.731000000     2.984000000
H     4.658000000    -3.177000000     2.852000000
O    -0.139000000     0.368000000    -4.035000000
H     0.201000000    -0.275000000    -3.413000000
H    -1.068000000     0.446000000    -3.816000000
O     1.548000000     5.971000000    -1.577000000
H     1.033000000     6.757000000    -1.399000000
H     1.702000000     5.993000000    -2.521000000
O     2.840000000    -3.115000000    -1.746000000
H     2.478000000    -3.999000000    -1.796000000
H     3.785000000    -3.247000000    -1.664000000
O    -4.665000000    -6.567000000     4.014000000
H    -4.481000000    -5.733000000     3.582000000
H    -3.816000000    -6.855000000     4.349000000
O     2.760000000    -6.108000000     1.752000000
H     3.359000000    -5.415000000     2.029000000
H     3.266000000    -6.914000000     1.847000000
O     1.957000000    -5.711000000    -1.094000000
H     2.226000000    -5.966000000    -0.211000000
H     1.095000000    -6.111000000    -1.206000000
O     2.476000000     3.579000000    -4.006000000
H     1.624000000     4.012000000    -4.048000000
H     2.595000000     3.200000000    -4.877000000
O    -0.854000000     6.104000000     0.759000000
H     0.021000000     6.417000000     0.990000000
H    -1.315000000     6.886000000     0.453000000
O    -6.233000000    -2.241000000     4.582000000
H    -5.547000000    -1.595000000     4.412000000
H    -6.427000000    -2.615000000     3.722000000
O    -0.083000000    -5.880000000     1.352000000
H    -0.204000000    -4.944000000     1.510000000
H     0.725000000    -6.098000000     1.815000000
O     4.780000000     1.248000000    -1.047000000
H     4.917000000     2.024000000    -1.589000000
H     4.429000000     1.589000000    -0.225000000
O    -2.255000000     1.570000000    -5.407000000
H    -1.313000000     1.450000000    -5.287000000
H    -2.647000000     1.171000000    -4.630000000
O     0.156000000    -2.026000000    -2.914000000
H    -0.633000000    -2.401000000    -2.523000000
H     0.840000000    -2.176000000    -2.262000000
O    -4.041000000    -3.981000000     3.089000000
H    -3.763000000    -3.865000000     3.998000000
H    -3.420000000    -3.460000000     2.580000000
O    -4.194000000    -1.654000000    -0.445000000
H    -4.937000000    -1.328000000     0.062000000
H    -3.639000000    -2.093000000     0.199000000
O    -2.825000000     0.279000000    -3.015000000
H    -3.284000000     0.808000000    -2.364000000
H    -2.938000000    -0.623000000    -2.714000000
O    -0.118000000    -2.368000000     6.131000000
H     0.544000000    -2.371000000     6.822000000
H    -0.940000000    -2.188000000     6.588000000
O    -1.495000000    -0.647000000     3.925000000
H    -0.731000000    -1.219000000     3.997000000
H    -1.322000000     0.062000000     4.543000000
O     1.794000000    -3.148000000     3.600000000
H     1.087000000    -3.182000000     2.956000000
H     1.347000000    -3.146000000     4.447000000
O    -6.145000000    -1.190000000     1.418000000
H    -6.805000000    -0.497000000     1.418000000
H    -5.447000000    -0.856000000     1.982000000
O     3.363000000     5.202000000     0.328000000
H     2.910000000     5.264000000     1.169000000
H     2.676000000     5.341000000    -0.324000000
O    -1.356000000     5.280000000    -2.380000000
H    -0.481000000     4.898000000    -2.441000000
H    -1.386000000     5.672000000    -1.507000000
O    -0.221000000    -8.693000000     1.710000000
H    -0.268000000    -7.741000000     1.795000000
H     0.238000000    -8.837000000     0.883000000
O    -0.517000000     4.118000000    -6.163000000
H    -1.037000000     3.369000000    -5.869000000
H    -0.136000000     3.833000000    -6.994000000
O     5.616000000    -3.388000000    -1.356000000
H     6.205000000    -3.974000000    -0.881000000
H     5.514000000    -2.632000000    -0.779000000
O     0.846000000     5.794000000    -4.590000000
H     0.327000000     5.299000000    -5.224000000
H     1.669000000     5.977000000    -5.045000000
O    -1.093000000    -4.201000000     4.367000000
H    -0.847000000    -3.816000000     3.526000000
H    -0.952000000    -3.498000000     5.002000000
O     5.491000000    -1.233000000     0.218000000
H     5.163000000    -1.256000000     1.117000000
H     5.714000000    -0.314000000     0.068000000
O     3.884000000     2.268000000     1.420000000
H     3.208000000     2.774000000     1.871000000
H     4.129000000     1.585000000     2.044000000
O    -2.207000000    -3.482000000    -2.137000000
H    -2.782000000    -3.758000000    -2.850000000
H    -2.784000000    -3.018000000    -1.530000000
O     2.337000000     3.937000000     2.738000000
H     2.578000000     4.071000000     3.654000000
H     1.454000000     4.300000000     2.667000000
O    -3.145000000    -6.696000000     0.905000000
H    -3.661000000    -6.367000000     1.640000000
H    -2.355000000    -6.156000000     0.905000000
O    -0.081000000     4.717000000     3.378000000
H    -0.699000000     5.010000000     2.708000000
H    -0.368000000     5.158000000     4.178000000
O    -5.254000000     2.251000000    -0.407000000
H    -5.025000000     3.000000000    -0.957000000
H    -5.831000000     1.719000000    -0.954000000
O    -2.495000000     4.070000000     0.816000000
H    -3.163000000     4.065000000     0.131000000
H    -2.102000000     4.941000000     0.761000000
