161
-3045.67579
C     0.380000000    -0.748000000     1.237000000
H     0.783000000    -1.246000000     2.115000000
C     1.134000000    -0.653000000     0.089000000
H     2.118000000    -1.109000000     0.014000000
C     0.662000000     0.064000000    -1.020000000
C     1.507000000     0.117000000    -2.320000000
H     1.414000000    -0.790000000    -2.921000000
H     1.243000000     0.916000000    -3.017000000
H     2.546000000     0.345000000    -2.073000000
C    -0.591000000     0.676000000    -0.950000000
H    -0.983000000     1.153000000    -1.844000000
C    -1.395000000     0.578000000     0.216000000
H    -2.318000000     1.152000000     0.244000000
C    -0.903000000    -0.175000000     1.351000000
C    -1.641000000    -0.143000000     2.626000000
O    -2.676000000     0.498000000     2.599000000
O    -1.285000000    -0.643000000     3.658000000
O    -1.011000000    -2.257000000    -1.044000000
H    -0.484000000    -1.512000000    -0.756000000
H    -0.588000000    -3.018000000    -0.646000000
O    -0.676000000     1.425000000    -6.632000000
H    -1.299000000     1.158000000    -5.957000000
H    -1.111000000     2.145000000    -7.088000000
O     2.544000000    -3.224000000    -2.845000000
H     2.680000000    -3.169000000    -1.899000000
H     2.280000000    -4.131000000    -2.998000000
O    -6.344000000     0.724000000    -2.048000000
H    -7.005000000     0.799000000    -1.359000000
H    -6.553000000    -0.099000000    -2.490000000
O    -2.422000000    -5.156000000    -0.186000000
H    -2.932000000    -4.627000000     0.427000000
H    -1.530000000    -4.819000000    -0.109000000
O    -3.667000000    -1.528000000    -1.101000000
H    -2.822000000    -1.976000000    -1.067000000
H    -3.469000000    -0.674000000    -1.486000000
O    -0.210000000     6.359000000    -1.341000000
H     0.440000000     5.679000000    -1.516000000
H     0.277000000     7.180000000    -1.415000000
O     1.307000000     2.122000000     4.193000000
H     0.369000000     2.314000000     4.198000000
H     1.411000000     1.423000000     4.839000000
O     0.948000000    -2.041000000     4.777000000
H     1.186000000    -1.308000000     5.345000000
H     0.182000000    -1.731000000     4.294000000
O    -4.296000000     3.776000000    -1.978000000
H    -4.342000000     4.429000000    -1.280000000
H    -3.946000000     4.254000000    -2.730000000
O     4.386000000     1.299000000    -4.445000000
H     3.919000000     1.971000000    -4.941000000
H     4.007000000     0.473000000    -4.745000000
O    -5.624000000    -2.303000000    -2.499000000
H    -5.649000000    -1.877000000    -3.356000000
H    -4.925000000    -1.851000000    -2.028000000
O     0.117000000    -2.170000000    -6.591000000
H     0.470000000    -2.982000000    -6.954000000
H    -0.178000000    -2.408000000    -5.712000000
O     4.079000000    -0.982000000     2.477000000
H     3.433000000    -1.200000000     3.148000000
H     4.635000000    -0.319000000     2.886000000
O    -0.832000000     3.177000000    -3.471000000
H    -0.210000000     2.775000000    -4.077000000
H    -1.509000000     3.550000000    -4.035000000
O    -5.587000000    -1.829000000     0.900000000
H    -5.663000000    -0.943000000     1.257000000
H    -4.907000000    -1.760000000     0.230000000
O    -1.357000000     2.428000000     4.519000000
H    -2.126000000     2.677000000     5.032000000
H    -1.545000000     1.538000000     4.223000000
O    -6.250000000     1.443000000     5.624000000
H    -5.700000000     0.694000000     5.855000000
H    -5.783000000     1.871000000     4.906000000
O     0.220000000    -4.530000000     0.443000000
H     0.138000000    -4.577000000     1.396000000
H     1.158000000    -4.620000000     0.279000000
O     4.760000000    -2.597000000     0.414000000
H     4.338000000    -1.999000000     1.031000000
H     5.597000000    -2.180000000     0.212000000
O    -0.200000000    -5.096000000     3.118000000
H    -0.286000000    -4.725000000     3.996000000
H    -0.875000000    -5.774000000     3.077000000
O    -2.816000000    -5.729000000     5.400000000
H    -2.417000000    -5.556000000     6.253000000
H    -2.664000000    -4.929000000     4.898000000
O    -5.821000000     2.803000000     0.185000000
H    -5.223000000     2.453000000     0.844000000
H    -5.251000000     3.086000000    -0.530000000
O    -2.594000000    -3.055000000     4.381000000
H    -3.316000000    -2.973000000     5.003000000
H    -2.134000000    -2.218000000     4.436000000
O    -3.345000000     2.995000000     1.662000000
H    -2.950000000     2.148000000     1.870000000
H    -2.602000000     3.559000000     1.448000000
O     6.113000000     3.435000000     0.186000000
H     5.174000000     3.341000000     0.026000000
H     6.454000000     2.541000000     0.140000000
O    -3.785000000     0.993000000    -2.589000000
H    -3.432000000     1.725000000    -2.084000000
H    -4.633000000     0.810000000    -2.184000000
O     2.874000000    -4.331000000     0.153000000
H     3.222000000    -5.134000000     0.542000000
H     3.597000000    -3.706000000     0.207000000
O     2.546000000     3.382000000    -5.334000000
H     2.628000000     3.385000000    -6.288000000
H     2.389000000     4.298000000    -5.105000000
O     3.176000000    -2.240000000    -5.380000000
H     2.944000000    -2.277000000    -4.451000000
H     3.045000000    -1.324000000    -5.623000000
O    -1.387000000    -1.332000000     6.524000000
H    -0.941000000    -0.526000000     6.263000000
H    -1.613000000    -1.193000000     7.444000000
O     2.250000000    -4.778000000     4.436000000
H     2.407000000    -3.834000000     4.458000000
H     1.519000000    -4.886000000     3.828000000
O    -1.630000000     4.759000000     0.940000000
H    -1.712000000     4.958000000     0.008000000
H    -0.692000000     4.824000000     1.117000000
O     0.893000000     4.795000000     1.534000000
H     1.307000000     3.947000000     1.370000000
H     1.393000000     5.412000000     0.999000000
O    -4.131000000    -0.143000000     5.163000000
H    -3.315000000    -0.138000000     4.663000000
H    -3.954000000    -0.722000000     5.904000000
O    -5.623000000     3.777000000     2.929000000
H    -4.683000000     3.674000000     2.782000000
H    -6.025000000     3.507000000     2.103000000
O     2.010000000    -0.058000000    -6.068000000
H     1.627000000     0.806000000    -5.914000000
H     1.257000000    -0.634000000    -6.200000000
O     1.517000000     4.408000000    -1.908000000
H     0.905000000     3.844000000    -2.380000000
H     2.127000000     3.801000000    -1.488000000
O     5.674000000     3.450000000    -2.966000000
H     6.533000000     3.206000000    -3.310000000
H     5.062000000     2.864000000    -3.411000000
O     0.291000000    -3.348000000     7.014000000
H     0.862000000    -3.257000000     6.251000000
H    -0.415000000    -2.719000000     6.861000000
O     1.882000000    -0.060000000     6.319000000
H     2.744000000     0.274000000     6.067000000
H     2.026000000    -0.477000000     7.168000000
O    -1.211000000    -2.168000000    -3.680000000
H    -1.111000000    -2.202000000    -2.729000000
H    -1.991000000    -2.693000000    -3.858000000
O    -3.178000000     3.558000000     6.219000000
H    -2.657000000     4.002000000     6.887000000
H    -3.741000000     4.243000000     5.859000000
O    -3.507000000    -3.491000000     1.659000000
H    -4.382000000    -3.117000000     1.761000000
H    -3.114000000    -3.423000000     2.529000000
O     2.551000000     2.725000000     0.082000000
H     1.902000000     2.049000000     0.277000000
H     3.043000000     2.827000000     0.896000000
O    -2.251000000     0.245000000    -4.695000000
H    -1.578000000    -0.370000000    -4.404000000
H    -2.717000000     0.486000000    -3.895000000
O     2.248000000    -4.872000000    -5.905000000
H     2.067000000    -5.034000000    -4.979000000
H     2.651000000    -4.005000000    -5.923000000
O    -5.292000000     0.189000000     2.812000000
H    -4.384000000     0.404000000     2.597000000
H    -5.268000000    -0.057000000     3.736000000
