161
-3033.54850
C     0.215000000    -1.094000000     1.028000000
H     0.327000000    -2.001000000     1.617000000
C     0.463000000    -1.183000000    -0.385000000
H     0.726000000    -2.202000000    -0.658000000
C     0.227000000    -0.105000000    -1.180000000
C     0.379000000    -0.272000000    -2.688000000
H    -0.138000000    -1.193000000    -2.969000000
H    -0.238000000     0.489000000    -3.171000000
H     1.417000000    -0.213000000    -3.022000000
C    -0.183000000     1.099000000    -0.684000000
H    -0.420000000     1.869000000    -1.414000000
C    -0.213000000     1.305000000     0.685000000
H    -0.483000000     2.284000000     1.072000000
C    -0.113000000     0.210000000     1.585000000
C    -0.493000000     0.310000000     3.017000000
O    -0.986000000     1.367000000     3.398000000
O    -0.484000000    -0.678000000     3.762000000
O     1.456000000    -5.580000000     1.533000000
H     1.509000000    -6.280000000     0.882000000
H     0.652000000    -5.109000000     1.313000000
O    -6.042000000     2.539000000     2.378000000
H    -6.332000000     1.777000000     2.880000000
H    -5.096000000     2.574000000     2.521000000
O     2.813000000     4.620000000    -1.880000000
H     2.375000000     5.427000000    -1.609000000
H     2.580000000     4.520000000    -2.803000000
O    -2.420000000     6.457000000     3.697000000
H    -1.695000000     6.487000000     4.321000000
H    -2.715000000     5.547000000     3.716000000
O    -3.654000000    -4.433000000    -3.584000000
H    -3.279000000    -4.786000000    -4.390000000
H    -3.711000000    -5.186000000    -2.996000000
O    -3.342000000     0.696000000     1.442000000
H    -2.474000000     0.411000000     1.158000000
H    -3.331000000     1.646000000     1.331000000
O    -4.309000000     3.204000000    -1.990000000
H    -4.645000000     4.083000000    -2.166000000
H    -5.054000000     2.626000000    -2.150000000
O     2.749000000    -4.042000000    -0.542000000
H     1.806000000    -4.176000000    -0.447000000
H     3.133000000    -4.491000000     0.211000000
O    -1.956000000    -4.914000000     6.058000000
H    -1.632000000    -4.305000000     5.394000000
H    -2.061000000    -4.378000000     6.844000000
O     1.732000000    -5.736000000    -5.421000000
H     1.286000000    -6.401000000    -4.896000000
H     1.365000000    -4.906000000    -5.118000000
O    -2.736000000     3.710000000    -5.035000000
H    -2.612000000     3.742000000    -5.984000000
H    -3.563000000     3.243000000    -4.918000000
O     2.983000000     1.963000000     0.132000000
H     3.417000000     2.785000000    -0.100000000
H     2.116000000     2.228000000     0.438000000
O    -0.534000000    -1.276000000     6.417000000
H    -0.222000000    -0.854000000     5.616000000
H     0.229000000    -1.746000000     6.753000000
O     4.099000000    -0.635000000    -0.205000000
H     3.873000000    -0.778000000    -1.124000000
H     3.887000000     0.285000000    -0.046000000
O    -3.292000000     3.914000000     3.078000000
H    -3.394000000     3.787000000     2.135000000
H    -2.383000000     3.673000000     3.256000000
O    -4.013000000     0.930000000    -6.442000000
H    -3.905000000     1.134000000    -5.513000000
H    -4.140000000    -0.018000000    -6.466000000
O     2.239000000    -2.433000000     7.081000000
H     2.724000000    -3.255000000     7.150000000
H     2.731000000    -1.819000000     7.626000000
O    -3.253000000    -1.225000000     3.907000000
H    -3.392000000    -1.003000000     2.986000000
H    -2.302000000    -1.213000000     4.016000000
O     0.579000000    -6.908000000     3.821000000
H    -0.288000000    -6.553000000     4.015000000
H     0.872000000    -6.420000000     3.052000000
O    -3.022000000     3.222000000     0.506000000
H    -2.334000000     3.180000000    -0.158000000
H    -3.825000000     3.377000000     0.008000000
O     2.627000000    -4.947000000     5.636000000
H     3.309000000    -5.325000000     5.081000000
H     1.989000000    -4.586000000     5.020000000
O     3.876000000    -1.554000000     2.261000000
H     3.705000000    -1.280000000     1.360000000
H     3.009000000    -1.730000000     2.627000000
O    -3.023000000    -1.666000000    -3.862000000
H    -3.792000000    -1.159000000    -3.602000000
H    -3.331000000    -2.573000000    -3.882000000
O    -0.097000000    -4.175000000     4.213000000
H    -0.554000000    -4.128000000     3.373000000
H     0.632000000    -3.562000000     4.123000000
O     0.811000000     1.055000000    -7.031000000
H     1.196000000     1.355000000    -6.208000000
H     0.012000000     0.597000000    -6.769000000
O    -0.305000000     3.590000000    -3.494000000
H    -0.903000000     3.302000000    -4.183000000
H    -0.023000000     4.462000000    -3.769000000
O     3.180000000    -2.567000000    -2.801000000
H     3.699000000    -3.207000000    -3.287000000
H     3.015000000    -2.985000000    -1.956000000
O    -3.945000000     1.278000000    -3.770000000
H    -3.856000000     1.965000000    -3.110000000
H    -4.712000000     0.777000000    -3.492000000
O     0.840000000    -3.426000000    -4.074000000
H     1.711000000    -3.164000000    -3.776000000
H     0.402000000    -3.743000000    -3.284000000
O    -2.690000000    -2.844000000    -0.409000000
H    -2.540000000    -2.095000000    -0.987000000
H    -3.607000000    -3.077000000    -0.552000000
O     3.614000000     4.659000000    -4.460000000
H     4.285000000     4.305000000    -3.876000000
H     3.094000000     3.898000000    -4.717000000
O    -0.333000000    -4.366000000    -1.632000000
H    -0.378000000    -5.195000000    -1.154000000
H    -1.066000000    -3.853000000    -1.292000000
O     0.051000000     6.096000000     2.239000000
H    -0.682000000     6.685000000     2.061000000
H    -0.326000000     5.403000000     2.781000000
O    -2.154000000     1.012000000     5.887000000
H    -1.552000000     1.267000000     5.188000000
H    -2.102000000     0.056000000     5.911000000
O    -4.923000000    -1.113000000     5.978000000
H    -4.415000000    -1.012000000     5.173000000
H    -5.693000000    -0.560000000     5.846000000
O    -0.715000000     3.889000000     3.503000000
H    -0.916000000     2.953000000     3.524000000
H    -0.134000000     4.026000000     4.250000000
O    -1.451000000     5.148000000    -1.342000000
H    -0.643000000     5.230000000    -0.834000000
H    -1.276000000     4.434000000    -1.956000000
O     1.638000000    -1.988000000     3.865000000
H     0.862000000    -1.429000000     3.896000000
H     1.976000000    -1.978000000     4.761000000
O     3.867000000     2.704000000     2.790000000
H     4.282000000     1.946000000     2.379000000
H     3.863000000     3.375000000     2.108000000
O    -1.176000000    -4.054000000     1.451000000
H    -1.720000000    -4.747000000     1.077000000
H    -1.557000000    -3.243000000     1.116000000
O     1.761000000     3.376000000     4.821000000
H     1.690000000     3.219000000     3.879000000
H     2.415000000     2.745000000     5.121000000
O     1.860000000     2.476000000    -4.620000000
H     1.178000000     2.654000000    -3.972000000
H     2.331000000     1.720000000    -4.270000000
O    -1.373000000    -0.186000000    -5.984000000
H    -2.212000000     0.236000000    -6.171000000
H    -1.581000000    -0.854000000    -5.331000000
O     3.867000000     0.399000000    -3.932000000
H     3.866000000    -0.464000000    -3.518000000
H     4.446000000     0.300000000    -4.689000000
O    -0.733000000     1.144000000     8.466000000
H    -0.644000000     1.249000000     7.519000000
H    -1.500000000     0.582000000     8.574000000
O    -3.007000000    -0.719000000     8.514000000
H    -3.183000000    -0.750000000     7.574000000
H    -3.122000000    -1.622000000     8.809000000
O     0.654000000    -2.614000000    -6.838000000
H     1.609000000    -2.542000000    -6.858000000
H     0.426000000    -2.520000000    -5.913000000
O    -4.564000000     2.250000000     5.002000000
H    -4.195000000     2.813000000     4.321000000
H    -3.816000000     1.750000000     5.330000000
