161
-3024.84742
C     0.096000000    -1.097000000     0.993000000
H     0.311000000    -2.000000000     1.560000000
C     0.648000000    -1.075000000    -0.340000000
H     1.085000000    -1.976000000    -0.763000000
C     0.467000000     0.008000000    -1.177000000
C     0.996000000     0.022000000    -2.572000000
H     1.568000000    -0.890000000    -2.759000000
H     0.199000000     0.138000000    -3.309000000
H     1.719000000     0.841000000    -2.568000000
C    -0.209000000     1.115000000    -0.626000000
H    -0.429000000     2.020000000    -1.186000000
C    -0.674000000     1.137000000     0.641000000
H    -1.097000000     2.052000000     1.048000000
C    -0.490000000     0.009000000     1.509000000
C    -1.189000000    -0.079000000     2.845000000
O    -2.073000000     0.735000000     3.032000000
O    -0.930000000    -0.958000000     3.665000000
O     1.465000000    -4.924000000     1.313000000
H     1.674000000    -4.835000000     0.383000000
H     0.511000000    -4.862000000     1.351000000
O    -5.946000000     2.743000000     4.588000000
H    -5.025000000     2.564000000     4.399000000
H    -6.196000000     3.413000000     3.951000000
O     2.806000000     2.794000000     2.745000000
H     2.882000000     1.860000000     2.937000000
H     2.995000000     2.862000000     1.809000000
O    -3.951000000     2.100000000     1.396000000
H    -3.494000000     1.511000000     1.996000000
H    -3.368000000     2.854000000     1.310000000
O    -6.140000000     1.738000000     0.090000000
H    -6.804000000     1.776000000     0.779000000
H    -5.308000000     1.694000000     0.561000000
O     3.941000000    -3.199000000    -1.862000000
H     3.082000000    -3.556000000    -1.636000000
H     4.534000000    -3.948000000    -1.808000000
O     0.116000000    -4.989000000     6.591000000
H    -0.226000000    -4.425000000     5.897000000
H    -0.380000000    -4.738000000     7.370000000
O     2.010000000     5.684000000    -0.696000000
H     2.265000000     6.093000000    -1.523000000
H     1.053000000     5.672000000    -0.719000000
O    -2.592000000    -1.206000000     5.785000000
H    -3.329000000    -1.733000000     5.476000000
H    -1.994000000    -1.169000000     5.039000000
O     3.426000000     3.401000000     0.236000000
H     3.981000000     3.136000000    -0.498000000
H     2.863000000     4.085000000    -0.125000000
O    -4.681000000     5.314000000     2.109000000
H    -4.252000000     5.471000000     2.950000000
H    -4.047000000     4.799000000     1.610000000
O    -4.314000000    -0.878000000     3.212000000
H    -4.666000000    -1.004000000     2.332000000
H    -3.468000000    -0.451000000     3.073000000
O     1.313000000    -6.882000000     3.298000000
H     0.499000000    -7.342000000     3.096000000
H     1.343000000    -6.160000000     2.670000000
O    -2.537000000     4.388000000     0.434000000
H    -1.663000000     4.744000000     0.270000000
H    -3.071000000     4.722000000    -0.286000000
O    -4.736000000    -1.216000000     0.296000000
H    -5.494000000    -0.897000000    -0.193000000
H    -4.706000000    -2.154000000     0.108000000
O     2.798000000    -4.594000000     5.586000000
H     2.540000000    -4.425000000     4.680000000
H     1.990000000    -4.875000000     6.016000000
O     3.106000000    -1.585000000     1.198000000
H     2.372000000    -1.291000000     0.659000000
H     3.148000000    -0.949000000     1.912000000
O    -2.628000000    -0.377000000    -4.100000000
H    -2.989000000     0.403000000    -3.680000000
H    -3.094000000    -1.107000000    -3.691000000
O    -0.558000000    -3.572000000     4.245000000
H    -0.679000000    -3.990000000     3.393000000
H    -0.675000000    -2.638000000     4.073000000
O     3.914000000    -4.103000000     1.781000000
H     3.836000000    -3.176000000     1.555000000
H     3.029000000    -4.450000000     1.677000000
O     1.862000000     4.366000000    -5.390000000
H     2.188000000     3.723000000    -4.760000000
H     1.067000000     4.715000000    -4.986000000
O     1.788000000    -4.976000000    -1.569000000
H     1.884000000    -5.829000000    -1.994000000
H     1.102000000    -4.535000000    -2.070000000
O    -0.132000000     5.682000000    -4.198000000
H    -1.053000000     5.484000000    -4.365000000
H     0.037000000     6.480000000    -4.700000000
O     4.179000000    -0.763000000    -3.183000000
H     3.553000000    -0.685000000    -3.903000000
H     3.962000000    -1.597000000    -2.765000000
O    -3.699000000     5.276000000     4.659000000
H    -3.293000000     5.854000000     5.305000000
H    -2.986000000     4.713000000     4.359000000
O    -0.662000000    -1.738000000    -5.489000000
H    -1.281000000    -1.221000000    -4.973000000
H    -0.748000000    -2.627000000    -5.145000000
O    -2.235000000    -2.278000000    -1.359000000
H    -1.703000000    -1.552000000    -1.033000000
H    -3.128000000    -2.060000000    -1.090000000
O    -4.272000000     0.945000000    -1.997000000
H    -4.275000000    -0.011000000    -2.052000000
H    -4.782000000     1.140000000    -1.210000000
O     1.152000000     1.329000000    -5.797000000
H     1.512000000     1.199000000    -6.674000000
H     1.525000000     0.618000000    -5.277000000
O    -0.614000000    -4.330000000    -2.496000000
H    -0.923000000    -4.959000000    -1.844000000
H    -0.953000000    -3.487000000    -2.195000000
O    -1.397000000    -1.313000000    -8.285000000
H    -1.267000000    -1.432000000    -7.344000000
H    -2.050000000    -0.616000000    -8.350000000
O    -1.821000000     7.031000000     2.205000000
H    -2.457000000     7.566000000     2.680000000
H    -2.353000000     6.479000000     1.632000000
O     0.263000000     0.060000000     5.858000000
H    -0.186000000    -0.513000000     5.237000000
H    -0.217000000    -0.053000000     6.679000000
O    -1.285000000    -2.695000000     7.977000000
H    -1.687000000    -2.947000000     8.809000000
H    -2.012000000    -2.356000000     7.454000000
O    -2.148000000     3.115000000     3.837000000
H    -2.044000000     2.196000000     3.591000000
H    -1.257000000     3.465000000     3.835000000
O     5.793000000    -0.549000000     0.407000000
H     5.278000000    -1.329000000     0.616000000
H     5.736000000    -0.006000000     1.193000000
O    -0.921000000     5.955000000    -1.664000000
H    -1.802000000     5.722000000    -1.957000000
H    -0.433000000     6.112000000    -2.473000000
O     3.792000000    -3.954000000    -5.326000000
H     4.505000000    -3.341000000    -5.508000000
H     3.110000000    -3.417000000    -4.923000000
O     2.239000000     0.056000000     3.736000000
H     1.494000000     0.169000000     4.325000000
H     3.006000000     0.107000000     4.306000000
O    -1.197000000    -4.120000000     1.406000000
H    -1.263000000    -4.861000000     0.804000000
H    -1.470000000    -3.364000000     0.886000000
O     0.818000000     3.840000000     4.331000000
H     0.683000000     4.645000000     3.830000000
H     1.579000000     3.428000000     3.921000000
O     3.875000000     3.781000000    -3.469000000
H     4.177000000     3.115000000    -4.087000000
H     3.967000000     3.369000000    -2.610000000
O    -1.669000000     1.601000000    -5.991000000
H    -0.784000000     1.962000000    -5.938000000
H    -1.663000000     0.863000000    -5.381000000
O     4.970000000     1.452000000    -1.715000000
H     5.311000000     0.990000000    -0.950000000
H     4.596000000     0.763000000    -2.264000000
O     6.776000000    -1.149000000    -2.166000000
H     6.641000000    -1.172000000    -1.219000000
H     5.939000000    -0.849000000    -2.520000000
O     2.141000000    -1.505000000    -5.523000000
H     1.226000000    -1.733000000    -5.689000000
H     2.469000000    -1.204000000    -6.371000000
O    -4.708000000    -3.014000000     5.338000000
H    -4.652000000    -2.427000000     4.584000000
H    -5.512000000    -2.751000000     5.787000000
O    -3.170000000     1.419000000     6.252000000
H    -2.930000000     1.791000000     5.403000000
H    -2.897000000     0.504000000     6.198000000
