161
-3033.63924
C     0.975000000    -0.635000000     0.955000000
H     1.806000000    -1.108000000     1.471000000
C     1.136000000    -0.453000000    -0.445000000
H     2.101000000    -0.588000000    -0.926000000
C     0.175000000     0.187000000    -1.210000000
C     0.366000000     0.539000000    -2.630000000
H     1.123000000    -0.053000000    -3.148000000
H    -0.598000000     0.523000000    -3.144000000
H     0.676000000     1.586000000    -2.665000000
C    -1.001000000     0.596000000    -0.591000000
H    -1.695000000     1.193000000    -1.178000000
C    -1.213000000     0.377000000     0.751000000
H    -2.135000000     0.752000000     1.187000000
C    -0.248000000    -0.309000000     1.500000000
C    -0.430000000    -0.750000000     2.955000000
O    -1.540000000    -0.769000000     3.478000000
O     0.499000000    -1.085000000     3.640000000
O     0.753000000     0.564000000    -6.897000000
H    -0.150000000     0.865000000    -6.803000000
H     0.791000000    -0.246000000    -6.388000000
O     4.479000000     3.302000000    -2.443000000
H     5.237000000     2.983000000    -2.934000000
H     4.522000000     4.255000000    -2.529000000
O     4.903000000     1.237000000     5.081000000
H     4.326000000     0.731000000     4.509000000
H     5.006000000     2.077000000     4.634000000
O     0.649000000    -3.187000000    -3.960000000
H     0.142000000    -2.439000000    -4.277000000
H     0.326000000    -3.336000000    -3.071000000
O    -4.195000000     3.846000000     0.198000000
H    -3.479000000     3.625000000    -0.398000000
H    -3.944000000     3.447000000     1.031000000
O     1.695000000     3.761000000    -1.672000000
H     0.939000000     3.243000000    -1.949000000
H     2.435000000     3.377000000    -2.142000000
O     0.447000000    -4.372000000    -0.887000000
H     1.209000000    -4.045000000    -1.366000000
H     0.748000000    -5.187000000    -0.485000000
O     2.467000000    -1.831000000     7.234000000
H     3.077000000    -2.289000000     7.812000000
H     2.227000000    -2.482000000     6.575000000
O    -2.508000000    -3.949000000     2.626000000
H    -1.583000000    -3.804000000     2.426000000
H    -2.816000000    -3.106000000     2.959000000
O    -1.201000000     3.637000000     5.210000000
H    -0.564000000     2.923000000     5.241000000
H    -1.978000000     3.248000000     4.808000000
O     6.198000000    -0.137000000    -0.801000000
H     6.282000000     0.718000000    -1.222000000
H     6.571000000    -0.012000000     0.072000000
O    -2.710000000     1.563000000     4.334000000
H    -3.487000000     1.188000000     4.748000000
H    -2.127000000     0.816000000     4.196000000
O    -5.191000000     3.639000000    -2.679000000
H    -4.392000000     4.160000000    -2.766000000
H    -5.465000000     3.771000000    -1.771000000
O    -0.129000000    -4.203000000     6.793000000
H     0.443000000    -3.959000000     6.066000000
H     0.463000000    -4.563000000     7.453000000
O     2.848000000    -4.860000000     3.828000000
H     2.284000000    -5.632000000     3.771000000
H     3.402000000    -5.023000000     4.591000000
O    -1.633000000     1.609000000    -7.538000000
H    -2.490000000     1.740000000    -7.132000000
H    -1.830000000     1.395000000    -8.450000000
O    -2.834000000    -0.490000000     8.288000000
H    -2.530000000     0.051000000     7.559000000
H    -2.768000000    -1.388000000     7.963000000
O     1.604000000    -3.110000000     5.156000000
H     2.047000000    -3.605000000     4.468000000
H     1.199000000    -2.373000000     4.698000000
O    -2.766000000     3.363000000     2.503000000
H    -2.732000000     2.587000000     3.062000000
H    -1.934000000     3.355000000     2.030000000
O     5.316000000    -3.846000000     2.049000000
H     5.196000000    -3.114000000     1.444000000
H     4.435000000    -4.041000000     2.367000000
O    -5.139000000    -0.060000000     6.104000000
H    -4.592000000    -0.739000000     5.709000000
H    -5.818000000    -0.544000000     6.575000000
O    -0.807000000    -1.374000000    -5.455000000
H    -1.154000000    -1.822000000    -6.226000000
H    -1.394000000    -1.630000000    -4.744000000
O     1.616000000     4.795000000    -5.416000000
H     1.221000000     5.660000000    -5.520000000
H     2.422000000     4.957000000    -4.926000000
O    -5.698000000     0.977000000     1.897000000
H    -4.961000000     0.367000000     1.847000000
H    -5.940000000     1.134000000     0.985000000
O    -0.381000000     3.588000000     1.221000000
H     0.291000000     3.615000000     1.903000000
H     0.031000000     3.115000000     0.498000000
O    -4.210000000    -1.709000000     0.927000000
H    -3.357000000    -2.091000000     1.132000000
H    -4.379000000    -1.971000000     0.022000000
O     1.053000000     1.605000000     6.691000000
H     1.131000000     2.432000000     7.168000000
H     1.734000000     1.047000000     7.066000000
O    -6.183000000    -2.626000000     3.944000000
H    -5.328000000    -2.240000000     4.134000000
H    -6.326000000    -2.445000000     3.015000000
O    -1.966000000    -3.166000000    -1.111000000
H    -1.107000000    -3.541000000    -0.917000000
H    -1.930000000    -2.282000000    -0.746000000
O    -2.628000000    -2.788000000     6.909000000
H    -1.751000000    -3.160000000     6.819000000
H    -3.149000000    -3.494000000     7.290000000
O    -0.948000000    -0.422000000     6.146000000
H    -1.183000000    -0.575000000     5.231000000
H     0.008000000    -0.462000000     6.157000000
O     1.990000000    -3.533000000    -6.809000000
H     1.410000000    -3.362000000    -6.067000000
H     2.863000000    -3.590000000    -6.421000000
O     3.781000000     1.978000000     0.107000000
H     4.696000000     2.142000000     0.336000000
H     3.792000000     1.848000000    -0.841000000
O    -0.616000000     3.939000000    -3.774000000
H     0.120000000     4.464000000    -4.091000000
H    -0.824000000     3.354000000    -4.503000000
O     2.439000000     2.852000000     2.186000000
H     2.488000000     2.077000000     2.747000000
H     2.767000000     2.554000000     1.338000000
O     2.242000000     0.742000000     4.384000000
H     1.702000000    -0.033000000     4.228000000
H     1.772000000     1.228000000     5.062000000
O     3.043000000    -4.092000000    -2.009000000
H     3.557000000    -3.413000000    -2.446000000
H     3.672000000    -4.792000000    -1.834000000
O    -3.542000000    -1.846000000     4.516000000
H    -3.183000000    -2.123000000     5.359000000
H    -2.817000000    -1.393000000     4.085000000
O     0.294000000     6.164000000    -1.672000000
H     0.853000000     6.744000000    -1.155000000
H     0.781000000     5.341000000    -1.718000000
O    -1.585000000    -5.440000000     4.573000000
H    -1.152000000    -4.866000000     5.205000000
H    -2.063000000    -4.844000000     3.997000000
O    -1.755000000     6.091000000     0.058000000
H    -1.066000000     6.191000000    -0.599000000
H    -1.438000000     5.395000000     0.634000000
O     0.099000000    -3.682000000     2.403000000
H     0.669000000    -4.312000000     1.962000000
H     0.697000000    -3.015000000     2.742000000
O     2.553000000     2.168000000    -5.733000000
H     2.127000000     3.010000000    -5.573000000
H     1.901000000     1.656000000    -6.210000000
O    -2.644000000    -2.315000000    -3.638000000
H    -3.508000000    -2.558000000    -3.970000000
H    -2.590000000    -2.737000000    -2.781000000
O     4.575000000    -1.844000000    -2.921000000
H     4.394000000    -1.175000000    -3.582000000
H     5.284000000    -1.474000000    -2.395000000
O     4.103000000     0.624000000    -4.339000000
H     4.765000000     1.313000000    -4.279000000
H     3.361000000     1.042000000    -4.778000000
O     4.336000000    -2.314000000     0.210000000
H     3.434000000    -2.466000000    -0.070000000
H     4.663000000    -1.642000000    -0.388000000
O    -2.848000000     5.080000000    -2.631000000
H    -2.349000000     5.663000000    -2.059000000
H    -2.245000000     4.867000000    -3.343000000
