161
-3079.14935
C     0.914000000    -0.526000000     1.040000000
H     1.614000000    -0.997000000     1.725000000
C     0.964000000    -0.778000000    -0.298000000
H     1.732000000    -1.409000000    -0.739000000
C     0.068000000    -0.261000000    -1.205000000
C     0.151000000    -0.589000000    -2.715000000
H     0.512000000    -1.615000000    -2.815000000
H    -0.814000000    -0.422000000    -3.197000000
H     0.857000000     0.055000000    -3.243000000
C    -0.874000000     0.579000000    -0.675000000
H    -1.598000000     1.020000000    -1.355000000
C    -0.982000000     0.982000000     0.666000000
H    -1.873000000     1.512000000     0.994000000
C    -0.086000000     0.369000000     1.553000000
C    -0.203000000     0.575000000     3.030000000
O    -1.020000000     1.383000000     3.432000000
O     0.646000000     0.127000000     3.803000000
O    -2.481000000    -4.245000000    -1.215000000
H    -1.894000000    -4.263000000    -1.971000000
H    -2.038000000    -3.682000000    -0.581000000
O     0.537000000     3.642000000    -3.850000000
H    -0.251000000     3.201000000    -4.168000000
H     0.431000000     3.664000000    -2.899000000
O    -3.071000000     4.892000000    -0.715000000
H    -2.650000000     4.294000000    -1.332000000
H    -3.768000000     5.308000000    -1.223000000
O     4.916000000     0.633000000    -0.933000000
H     5.370000000     0.625000000    -1.776000000
H     5.490000000     1.137000000    -0.357000000
O     3.848000000    -4.585000000     0.441000000
H     3.000000000    -5.002000000     0.594000000
H     3.665000000    -3.647000000     0.491000000
O     0.747000000    -3.760000000    -6.934000000
H     1.184000000    -4.519000000    -6.548000000
H     1.215000000    -3.006000000    -6.575000000
O    -1.934000000    -0.766000000    -5.729000000
H    -1.554000000    -0.459000000    -6.552000000
H    -1.458000000    -1.574000000    -5.532000000
O    -1.489000000     5.863000000     1.514000000
H    -2.004000000     5.674000000     2.299000000
H    -2.084000000     5.683000000     0.787000000
O    -3.941000000    -1.295000000    -1.284000000
H    -3.463000000    -1.364000000    -0.458000000
H    -4.153000000    -2.200000000    -1.515000000
O    -0.810000000     4.576000000     5.260000000
H    -0.063000000     5.116000000     5.518000000
H    -1.288000000     4.423000000     6.075000000
O     0.631000000     4.060000000     1.638000000
H    -0.059000000     4.722000000     1.675000000
H     1.059000000     4.112000000     2.492000000
O     1.601000000    -3.770000000    -2.204000000
H     1.754000000    -3.179000000    -2.942000000
H     0.677000000    -4.008000000    -2.277000000
O    -3.382000000    -1.290000000     1.539000000
H    -3.678000000    -0.726000000     2.254000000
H    -2.436000000    -1.362000000     1.668000000
O     1.266000000    -5.547000000     1.294000000
H     1.360000000    -4.918000000     2.010000000
H     0.793000000    -6.283000000     1.682000000
O     2.480000000     3.470000000     6.415000000
H     2.394000000     3.403000000     7.367000000
H     1.588000000     3.358000000     6.087000000
O     1.763000000     0.895000000     8.194000000
H     1.906000000    -0.033000000     8.008000000
H     1.530000000     1.277000000     7.348000000
O    -1.377000000    -3.760000000    -5.232000000
H    -0.693000000    -3.803000000    -5.901000000
H    -2.196000000    -3.831000000    -5.722000000
O     4.893000000    -4.037000000     4.048000000
H     4.851000000    -3.111000000     3.807000000
H     5.305000000    -4.462000000     3.296000000
O    -5.986000000     1.292000000    -3.098000000
H    -5.079000000     1.157000000    -3.373000000
H    -5.967000000     1.180000000    -2.148000000
O     4.181000000    -1.762000000     0.945000000
H     3.795000000    -0.989000000     0.533000000
H     4.463000000    -1.458000000     1.808000000
O    -2.666000000     3.322000000    -3.054000000
H    -1.920000000     2.923000000    -3.501000000
H    -3.278000000     2.599000000    -2.918000000
O     3.517000000    -6.023000000    -2.458000000
H     2.815000000    -5.379000000    -2.366000000
H     4.134000000    -5.620000000    -3.069000000
O    -0.629000000    -4.863000000    -3.075000000
H    -0.800000000    -4.541000000    -3.960000000
H    -0.074000000    -5.632000000    -3.203000000
O     4.669000000    -1.442000000     3.787000000
H     4.057000000    -0.745000000     4.023000000
H     5.501000000    -1.172000000     4.175000000
O    -2.530000000     3.514000000     3.298000000
H    -2.076000000     2.673000000     3.340000000
H    -2.122000000     4.042000000     3.984000000
O     0.101000000     3.265000000    -0.912000000
H     0.168000000     3.677000000    -0.051000000
H    -0.303000000     2.414000000    -0.739000000
O     3.560000000    -0.360000000    -4.828000000
H     3.261000000     0.502000000    -4.537000000
H     4.418000000    -0.196000000    -5.219000000
O    -3.446000000     0.555000000     3.908000000
H    -3.784000000     1.038000000     4.662000000
H    -2.615000000     0.984000000     3.701000000
O    -0.762000000    -3.304000000     0.669000000
H    -0.222000000    -3.992000000     1.056000000
H    -0.139000000    -2.620000000     0.423000000
O     5.703000000    -4.189000000    -1.397000000
H     4.804000000    -4.347000000    -1.109000000
H     5.977000000    -3.411000000    -0.911000000
O     4.683000000     1.529000000     2.197000000
H     4.278000000     2.282000000     1.767000000
H     4.027000000     1.231000000     2.827000000
O     0.756000000    -3.978000000     3.366000000
H    -0.145000000    -4.127000000     3.653000000
H     1.051000000    -3.227000000     3.882000000
O     0.098000000     1.858000000     5.895000000
H    -0.276000000     2.666000000     5.543000000
H     0.188000000     1.285000000     5.134000000
O    -5.186000000     1.163000000    -0.644000000
H    -4.807000000     1.719000000     0.036000000
H    -4.560000000     0.447000000    -0.745000000
O     1.812000000    -1.908000000     7.943000000
H     1.502000000    -1.856000000     7.038000000
H     1.438000000    -2.723000000     8.277000000
O    -1.489000000     0.992000000     8.025000000
H    -0.925000000     1.190000000     8.773000000
H    -1.020000000     1.350000000     7.271000000
O    -0.093000000     0.029000000    -7.894000000
H     0.161000000     0.422000000    -8.729000000
H     0.637000000    -0.547000000    -7.668000000
O     3.139000000     0.962000000     4.400000000
H     3.104000000     1.483000000     5.202000000
H     2.292000000     0.517000000     4.367000000
O     3.255000000     3.801000000     1.699000000
H     3.329000000     4.554000000     2.286000000
H     2.358000000     3.844000000     1.367000000
O     2.782000000    -2.805000000    -4.849000000
H     3.208000000    -1.951000000    -4.771000000
H     3.462000000    -3.434000000    -4.607000000
O    -3.899000000     2.938000000     0.965000000
H    -3.735000000     3.670000000     0.371000000
H    -3.425000000     3.168000000     1.765000000
O    -2.173000000    -1.329000000     5.440000000
H    -2.887000000    -1.965000000     5.389000000
H    -2.420000000    -0.641000000     4.822000000
O     0.728000000    -2.008000000     5.471000000
H    -0.221000000    -2.135000000     5.451000000
H     0.881000000    -1.257000000     4.898000000
O     6.907000000    -1.550000000    -0.087000000
H     7.240000000    -1.000000000    -0.797000000
H     5.959000000    -1.418000000    -0.106000000
O     2.065000000    -1.150000000    -7.417000000
H     2.345000000    -0.839000000    -6.556000000
H     2.730000000    -1.790000000    -7.668000000
O    -1.291000000     1.870000000    -4.895000000
H    -1.011000000     1.000000000    -5.179000000
H    -2.219000000     1.910000000    -5.123000000
O     2.898000000     2.199000000    -4.524000000
H     3.043000000     2.703000000    -5.325000000
H     2.078000000     2.542000000    -4.170000000
O    -3.582000000     0.101000000    -3.601000000
H    -3.573000000    -0.640000000    -2.994000000
H    -3.191000000    -0.243000000    -4.404000000
