161
-3028.83368
C    -0.783000000     0.019000000    -1.236000000
H    -1.316000000    -0.031000000    -2.182000000
C     0.547000000    -0.449000000    -1.113000000
H     1.139000000    -0.725000000    -1.982000000
C     1.195000000    -0.301000000     0.145000000
C     2.549000000    -0.803000000     0.247000000
H     2.687000000    -1.150000000     1.274000000
H     2.692000000    -1.622000000    -0.461000000
H     3.191000000     0.026000000    -0.058000000
C     0.565000000     0.168000000     1.238000000
H     1.013000000     0.199000000     2.227000000
C    -0.801000000     0.527000000     1.093000000
H    -1.336000000     0.845000000     1.984000000
C    -1.440000000     0.602000000    -0.160000000
C    -2.870000000     0.851000000    -0.313000000
O    -3.611000000     1.066000000     0.657000000
O    -3.422000000     0.772000000    -1.352000000
O     4.012000000    -2.213000000     3.742000000
H     3.574000000    -2.963000000     4.146000000
H     3.497000000    -1.456000000     4.022000000
O     6.343000000     0.034000000    -0.933000000
H     5.443000000    -0.076000000    -1.240000000
H     6.434000000     0.975000000    -0.789000000
O     5.716000000    -0.958000000     1.658000000
H     5.616000000    -0.219000000     1.059000000
H     5.029000000    -0.830000000     2.313000000
O     7.175000000    -3.152000000     0.974000000
H     8.034000000    -3.202000000     0.555000000
H     7.036000000    -2.218000000     1.127000000
O    -5.038000000     4.499000000     2.143000000
H    -4.273000000     4.039000000     2.487000000
H    -5.784000000     4.073000000     2.565000000
O    -0.246000000    -2.326000000     3.598000000
H    -0.853000000    -2.555000000     2.894000000
H    -0.762000000    -2.421000000     4.399000000
O     4.350000000     3.301000000     0.560000000
H     4.677000000     4.105000000     0.963000000
H     3.444000000     3.233000000     0.862000000
O    -6.154000000    -0.098000000    -1.573000000
H    -5.282000000     0.249000000    -1.386000000
H    -6.476000000     0.439000000    -2.297000000
O     4.017000000    -0.804000000    -3.428000000
H     3.169000000    -0.775000000    -3.872000000
H     4.131000000     0.078000000    -3.073000000
O     0.514000000    -6.157000000    -1.504000000
H    -0.403000000    -6.243000000    -1.244000000
H     0.837000000    -5.411000000    -0.998000000
O     4.135000000    -5.358000000    -1.524000000
H     4.654000000    -5.740000000    -0.816000000
H     4.710000000    -4.700000000    -1.914000000
O    -6.290000000    -2.382000000    -3.336000000
H    -6.113000000    -1.466000000    -3.124000000
H    -7.203000000    -2.389000000    -3.625000000
O     4.522000000    -2.881000000    -5.007000000
H     4.330000000    -2.111000000    -4.472000000
H     4.078000000    -2.711000000    -5.838000000
O    -0.938000000     4.454000000     2.238000000
H    -1.674000000     3.866000000     2.405000000
H    -0.279000000     4.203000000     2.885000000
O    -8.274000000    -1.779000000    -0.801000000
H    -8.772000000    -1.843000000    -1.616000000
H    -7.545000000    -1.196000000    -1.010000000
O    -0.702000000    -4.197000000    -3.612000000
H    -0.154000000    -4.518000000    -2.896000000
H    -0.384000000    -4.663000000    -4.385000000
O     1.106000000     3.383000000     3.503000000
H     0.945000000     2.755000000     4.208000000
H     2.018000000     3.647000000     3.622000000
O     2.166000000    -4.604000000     0.266000000
H     2.689000000    -4.094000000     0.884000000
H     2.763000000    -4.785000000    -0.460000000
O    -6.004000000     0.672000000     1.468000000
H    -5.155000000     0.797000000     1.045000000
H    -6.641000000     0.965000000     0.817000000
O    -3.185000000     2.761000000     2.717000000
H    -3.399000000     2.249000000     1.937000000
H    -2.994000000     2.106000000     3.388000000
O    -5.496000000    -0.200000000    -5.136000000
H    -5.671000000    -0.530000000    -6.018000000
H    -6.081000000     0.552000000    -5.042000000
O    -2.897000000     0.628000000     4.291000000
H    -3.806000000     0.340000000     4.379000000
H    -2.378000000    -0.149000000     4.499000000
O    -7.814000000     2.185000000     0.198000000
H    -8.126000000     1.843000000    -0.640000000
H    -8.175000000     3.070000000     0.245000000
O    -4.261000000    -3.902000000     1.113000000
H    -3.656000000    -3.315000000     1.565000000
H    -4.246000000    -3.606000000     0.203000000
O     1.677000000    -4.310000000     3.893000000
H     1.020000000    -4.464000000     4.572000000
H     1.329000000    -3.578000000     3.385000000
O    -4.258000000    -2.317000000    -0.993000000
H    -3.997000000    -1.397000000    -1.008000000
H    -4.859000000    -2.408000000    -1.731000000
O    -1.527000000     3.733000000    -3.417000000
H    -2.473000000     3.823000000    -3.529000000
H    -1.327000000     2.862000000    -3.761000000
O     3.911000000     1.651000000    -1.843000000
H     4.173000000     2.136000000    -1.061000000
H     2.954000000     1.655000000    -1.818000000
O     0.235000000     2.250000000     6.061000000
H     0.156000000     1.421000000     6.533000000
H     0.502000000     2.881000000     6.730000000
O    -2.824000000    -2.081000000     2.522000000
H    -2.911000000    -1.187000000     2.192000000
H    -3.642000000    -2.243000000     2.992000000
O     4.566000000    -3.772000000     1.263000000
H     5.502000000    -3.904000000     1.111000000
H     4.525000000    -3.281000000     2.084000000
O    -7.019000000     2.915000000     3.097000000
H    -6.438000000     2.411000000     3.667000000
H    -7.358000000     2.274000000     2.473000000
O    -0.110000000    -1.586000000    -6.742000000
H    -0.182000000    -1.665000000    -5.791000000
H     0.642000000    -2.132000000    -6.972000000
O    -3.168000000     0.258000000    -3.957000000
H    -3.918000000     0.015000000    -4.501000000
H    -3.438000000     0.036000000    -3.066000000
O    -5.079000000    -0.841000000     3.977000000
H    -5.192000000    -1.670000000     4.441000000
H    -5.482000000    -0.987000000     3.121000000
O     5.680000000    -3.058000000    -1.889000000
H     5.967000000    -2.765000000    -1.024000000
H     5.103000000    -2.359000000    -2.198000000
O     1.753000000    -0.749000000     5.015000000
H     1.728000000    -1.220000000     5.848000000
H     1.119000000    -1.206000000     4.462000000
O     3.986000000     1.226000000     2.929000000
H     3.889000000     1.144000000     1.980000000
H     3.817000000     2.151000000     3.108000000
O     0.211000000     3.309000000    -1.370000000
H    -0.497000000     3.516000000    -1.980000000
H    -0.015000000     2.444000000    -1.027000000
O     1.814000000     3.780000000     0.946000000
H     1.298000000     3.609000000     1.733000000
H     1.173000000     3.780000000     0.235000000
O     4.163000000     0.488000000     5.713000000
H     4.408000000     0.784000000     4.836000000
H     3.208000000     0.438000000     5.691000000
O    -2.799000000     3.107000000     6.046000000
H    -2.255000000     2.363000000     5.787000000
H    -3.216000000     2.826000000     6.861000000
O    -8.061000000    -0.033000000     3.064000000
H    -7.264000000     0.128000000     2.558000000
H    -8.764000000    -0.012000000     2.415000000
O     1.686000000    -0.283000000    -5.072000000
H     1.194000000    -0.594000000    -5.832000000
H     1.092000000     0.330000000    -4.637000000
O    -1.068000000    -3.318000000    -0.534000000
H    -1.323000000    -3.128000000    -1.437000000
H    -0.291000000    -2.779000000    -0.385000000
O    -2.461000000     5.286000000     0.243000000
H    -3.172000000     5.781000000     0.648000000
H    -1.901000000     5.027000000     0.975000000
O    -5.124000000     2.765000000    -1.583000000
H    -5.017000000     2.896000000    -0.641000000
H    -4.499000000     2.074000000    -1.801000000
O    -0.795000000     1.459000000    -4.802000000
H    -1.642000000     1.132000000    -4.500000000
H    -0.868000000     1.468000000    -5.756000000
