161
-3009.44867
C     0.850000000    -0.600000000     1.078000000
H     1.505000000    -1.064000000     1.811000000
C     1.318000000     0.191000000     0.012000000
H     2.354000000     0.517000000    -0.036000000
C     0.432000000     0.720000000    -0.909000000
C     0.896000000     1.459000000    -2.117000000
H     1.813000000     0.999000000    -2.492000000
H     0.140000000     1.326000000    -2.893000000
H     1.063000000     2.489000000    -1.794000000
C    -0.923000000     0.440000000    -0.855000000
H    -1.555000000     0.841000000    -1.643000000
C    -1.383000000    -0.341000000     0.240000000
H    -2.417000000    -0.678000000     0.228000000
C    -0.505000000    -0.871000000     1.172000000
C    -1.024000000    -1.666000000     2.341000000
O    -2.261000000    -1.800000000     2.568000000
O    -0.297000000    -1.966000000     3.289000000
O    -7.160000000    -1.983000000     2.108000000
H    -6.544000000    -1.326000000     1.784000000
H    -7.248000000    -2.605000000     1.385000000
O     5.607000000     1.521000000    -5.924000000
H     6.008000000     0.652000000    -5.913000000
H     5.330000000     1.669000000    -5.020000000
O    -0.554000000    -0.440000000     5.366000000
H    -0.574000000    -1.120000000     4.693000000
H     0.042000000     0.223000000     5.018000000
O    -2.777000000     1.152000000    -4.024000000
H    -2.472000000     1.216000000    -4.929000000
H    -2.476000000     1.962000000    -3.612000000
O     0.512000000     1.303000000     3.541000000
H     0.815000000     1.832000000     2.803000000
H    -0.434000000     1.233000000     3.413000000
O    -0.653000000    -4.726000000    -0.123000000
H    -0.898000000    -3.922000000    -0.580000000
H    -0.451000000    -5.347000000    -0.823000000
O     2.096000000     3.070000000     5.070000000
H     1.428000000     2.536000000     4.641000000
H     1.689000000     3.931000000     5.168000000
O    -4.412000000     1.862000000    -0.366000000
H    -4.103000000     2.505000000     0.272000000
H    -3.932000000     2.070000000    -1.168000000
O     3.459000000    -2.447000000     4.951000000
H     4.145000000    -2.341000000     5.609000000
H     3.270000000    -1.556000000     4.656000000
O    -6.201000000     1.558000000     3.752000000
H    -7.045000000     1.108000000     3.792000000
H    -5.633000000     0.957000000     3.271000000
O     4.354000000     2.094000000    -0.758000000
H     4.880000000     2.489000000    -0.063000000
H     3.449000000     2.205000000    -0.466000000
O     2.101000000    -4.653000000     0.738000000
H     1.172000000    -4.864000000     0.640000000
H     2.153000000    -4.182000000     1.570000000
O    -2.688000000    -6.847000000     1.450000000
H    -3.512000000    -6.416000000     1.677000000
H    -2.010000000    -6.239000000     1.746000000
O    -0.743000000     5.372000000    -2.088000000
H    -1.049000000     6.261000000    -1.909000000
H     0.166000000     5.484000000    -2.368000000
O     2.104000000    -2.290000000    -1.906000000
H     2.199000000    -2.907000000    -1.180000000
H     1.266000000    -1.857000000    -1.744000000
O    -3.859000000     0.010000000     3.152000000
H    -3.164000000    -0.647000000     3.194000000
H    -3.401000000     0.832000000     2.978000000
O    -0.459000000     3.295000000     0.977000000
H    -0.776000000     3.699000000     0.169000000
H    -0.453000000     4.009000000     1.616000000
O    -1.888000000    -3.175000000     5.128000000
H    -1.440000000    -2.853000000     4.346000000
H    -1.189000000    -3.304000000     5.769000000
O     1.921000000     5.875000000    -2.733000000
H     1.877000000     6.649000000    -3.295000000
H     2.775000000     5.487000000    -2.927000000
O     6.151000000    -1.979000000     1.338000000
H     5.580000000    -2.744000000     1.395000000
H     6.493000000    -1.868000000     2.225000000
O     2.334000000    -4.423000000     6.785000000
H     1.424000000    -4.148000000     6.894000000
H     2.820000000    -3.606000000     6.678000000
O     1.723000000    -3.393000000     3.147000000
H     2.288000000    -2.942000000     3.774000000
H     0.871000000    -2.967000000     3.244000000
O     2.171000000     3.053000000     1.480000000
H     1.298000000     3.422000000     1.340000000
H     2.645000000     3.734000000     1.957000000
O     2.209000000    -2.239000000    -6.515000000
H     1.442000000    -2.411000000    -5.968000000
H     2.453000000    -1.337000000    -6.309000000
O    -2.264000000     1.914000000     2.518000000
H    -1.482000000     2.040000000     1.980000000
H    -2.799000000     2.689000000     2.347000000
O     4.416000000     4.797000000    -3.086000000
H     4.480000000     3.877000000    -3.346000000
H     5.213000000     4.958000000    -2.581000000
O    -1.288000000    -4.941000000     2.471000000
H    -0.833000000    -4.568000000     1.715000000
H    -1.640000000    -4.182000000     2.936000000
O    -0.823000000    -6.820000000     4.450000000
H    -1.064000000    -6.003000000     4.013000000
H     0.106000000    -6.717000000     4.655000000
O    -4.633000000    -5.156000000     2.630000000
H    -4.650000000    -4.729000000     3.487000000
H    -5.521000000    -5.494000000     2.513000000
O    -2.704000000     3.749000000    -5.523000000
H    -2.557000000     4.198000000    -4.691000000
H    -3.657000000     3.724000000    -5.616000000
O    -3.054000000    -4.573000000    -2.749000000
H    -3.965000000    -4.823000000    -2.593000000
H    -3.014000000    -3.649000000    -2.502000000
O    -3.893000000    -1.575000000    -3.013000000
H    -4.163000000    -1.677000000    -2.101000000
H    -3.579000000    -0.672000000    -3.071000000
O     2.692000000     0.020000000     4.051000000
H     3.308000000     0.680000000     3.733000000
H     1.829000000     0.407000000     3.904000000
O    -0.492000000     1.545000000    -6.191000000
H    -0.771000000     2.351000000    -5.758000000
H     0.274000000     1.802000000    -6.705000000
O    -5.345000000    -0.575000000     0.983000000
H    -4.712000000    -0.625000000     1.699000000
H    -5.090000000     0.208000000     0.494000000
O     1.637000000    -6.205000000     4.496000000
H     2.495000000    -6.222000000     4.073000000
H     1.545000000    -5.308000000     4.818000000
O    -1.093000000    -2.186000000    -2.294000000
H    -1.156000000    -1.383000000    -1.776000000
H    -1.326000000    -1.917000000    -3.182000000
O    -4.968000000    -3.727000000     5.030000000
H    -4.074000000    -3.664000000     5.367000000
H    -5.302000000    -2.831000000     5.071000000
O    -0.474000000    -1.310000000    -4.892000000
H    -0.210000000    -0.443000000    -5.201000000
H    -1.211000000    -1.550000000    -5.453000000
O    -5.397000000    -3.188000000    -1.074000000
H    -4.758000000    -3.221000000    -0.363000000
H    -6.230000000    -3.415000000    -0.659000000
O     5.293000000     1.822000000    -3.120000000
H     4.749000000     2.051000000    -2.366000000
H     6.026000000     1.332000000    -2.747000000
O     4.103000000    -1.271000000    -3.314000000
H     3.584000000    -1.161000000    -4.111000000
H     3.486000000    -1.623000000    -2.673000000
O    -4.026000000    -1.692000000     6.680000000
H    -3.266000000    -1.572000000     6.111000000
H    -4.437000000    -0.828000000     6.716000000
O    -3.501000000    -3.380000000     0.971000000
H    -3.662000000    -4.112000000     1.566000000
H    -3.273000000    -2.650000000     1.547000000
O    -2.661000000     3.338000000    -2.306000000
H    -3.055000000     4.140000000    -2.650000000
H    -1.741000000     3.563000000    -2.168000000
O     2.266000000     0.091000000    -5.226000000
H     2.108000000     0.757000000    -5.895000000
H     2.230000000     0.569000000    -4.398000000
O     7.133000000     0.517000000    -0.003000000
H     6.605000000     0.085000000     0.669000000
H     6.583000000     1.235000000    -0.316000000
O     5.883000000     3.021000000     1.387000000
H     6.004000000     3.970000000     1.416000000
H     5.354000000     2.824000000     2.160000000
