161
-3059.12122
C     0.393000000     0.595000000     1.248000000
H     0.732000000     1.180000000     2.100000000
C     1.003000000     0.799000000     0.056000000
H     1.841000000     1.489000000    -0.007000000
C     0.575000000     0.075000000    -1.051000000
C     1.210000000     0.534000000    -2.374000000
H     0.589000000     0.149000000    -3.185000000
H     1.254000000     1.625000000    -2.373000000
H     2.240000000     0.173000000    -2.397000000
C    -0.489000000    -0.825000000    -1.010000000
H    -0.762000000    -1.388000000    -1.899000000
C    -1.103000000    -1.042000000     0.183000000
H    -1.844000000    -1.790000000     0.452000000
C    -0.740000000    -0.277000000     1.311000000
C    -1.446000000    -0.390000000     2.655000000
O    -2.387000000    -1.170000000     2.716000000
O    -1.074000000     0.260000000     3.579000000
O    -0.797000000     4.058000000     1.070000000
H    -0.638000000     3.996000000     2.012000000
H    -1.750000000     4.104000000     0.991000000
O     5.493000000     2.480000000    -3.803000000
H     4.887000000     2.909000000    -4.407000000
H     5.165000000     2.708000000    -2.933000000
O     0.908000000     5.237000000    -3.047000000
H     1.680000000     4.673000000    -3.063000000
H     0.742000000     5.442000000    -3.967000000
O     2.729000000     0.888000000     5.458000000
H     3.058000000     0.840000000     4.560000000
H     1.966000000     0.310000000     5.464000000
O    -0.613000000    -3.159000000    -4.092000000
H    -0.814000000    -4.085000000    -3.957000000
H     0.294000000    -3.065000000    -3.800000000
O    -4.479000000     1.622000000     5.646000000
H    -4.650000000     0.726000000     5.356000000
H    -3.978000000     2.014000000     4.931000000
O    -0.987000000     4.411000000     3.779000000
H    -0.728000000     3.762000000     4.434000000
H    -0.580000000     5.225000000     4.075000000
O     1.256000000    -3.278000000     5.486000000
H     1.786000000    -3.703000000     4.812000000
H     1.066000000    -2.410000000     5.130000000
O     0.588000000    -5.416000000     1.387000000
H    -0.032000000    -5.342000000     0.661000000
H     0.242000000    -6.127000000     1.926000000
O     1.085000000     3.006000000    -6.034000000
H     0.436000000     2.304000000    -6.078000000
H     0.605000000     3.755000000    -5.682000000
O     4.485000000    -3.531000000    -4.250000000
H     3.568000000    -3.805000000    -4.276000000
H     4.590000000    -3.129000000    -3.388000000
O    -7.379000000    -1.856000000     3.549000000
H    -6.752000000    -1.180000000     3.806000000
H    -8.221000000    -1.401000000     3.514000000
O    -5.632000000    -0.448000000     0.810000000
H    -6.491000000    -0.618000000     0.423000000
H    -5.235000000     0.205000000     0.233000000
O    -4.059000000    -0.832000000     4.834000000
H    -3.671000000    -0.865000000     3.960000000
H    -3.317000000    -0.930000000     5.430000000
O    -0.854000000    -5.591000000    -1.068000000
H    -0.335000000    -6.392000000    -0.990000000
H    -1.093000000    -5.550000000    -1.994000000
O    -3.436000000     3.131000000    -2.858000000
H    -4.057000000     3.859000000    -2.849000000
H    -2.621000000     3.507000000    -2.526000000
O    -1.211000000    -3.518000000     3.607000000
H    -1.788000000    -2.769000000     3.458000000
H    -0.466000000    -3.366000000     3.026000000
O     0.448000000    -0.583000000     5.422000000
H    -0.102000000    -0.270000000     4.704000000
H    -0.153000000    -0.680000000     6.160000000
O     4.686000000     2.215000000     0.304000000
H     4.630000000     2.701000000     1.127000000
H     4.428000000     2.848000000    -0.366000000
O     6.800000000    -1.305000000    -1.475000000
H     7.680000000    -1.546000000    -1.766000000
H     6.315000000    -1.149000000    -2.285000000
O     1.508000000    -3.408000000     2.741000000
H     2.010000000    -2.900000000     2.104000000
H     1.102000000    -4.105000000     2.225000000
O    -1.330000000     4.805000000    -1.612000000
H    -0.943000000     4.708000000    -0.742000000
H    -0.582000000     4.806000000    -2.209000000
O     3.533000000     3.771000000    -1.955000000
H     3.796000000     4.690000000    -1.907000000
H     2.836000000     3.687000000    -1.305000000
O    -2.603000000     2.322000000     3.884000000
H    -1.942000000     1.638000000     3.772000000
H    -2.136000000     3.138000000     3.708000000
O    -3.488000000    -4.427000000    -0.791000000
H    -2.536000000    -4.523000000    -0.805000000
H    -3.675000000    -4.005000000     0.047000000
O    -4.693000000     1.769000000     2.169000000
H    -3.897000000     2.006000000     2.645000000
H    -4.764000000     0.821000000     2.278000000
O     4.544000000     3.720000000     2.421000000
H     4.140000000     4.127000000     3.187000000
H     5.032000000     4.428000000     2.001000000
O     5.601000000    -0.589000000    -3.928000000
H     5.002000000    -0.971000000    -4.570000000
H     5.323000000     0.324000000    -3.855000000
O    -3.934000000    -4.008000000    -3.695000000
H    -3.861000000    -4.229000000    -2.767000000
H    -4.214000000    -4.822000000    -4.114000000
O    -0.860000000     1.164000000    -6.186000000
H    -1.401000000     0.423000000    -5.912000000
H    -0.487000000     0.892000000    -7.024000000
O    -1.715000000    -1.346000000    -5.594000000
H    -1.056000000    -1.904000000    -5.180000000
H    -2.162000000    -1.923000000    -6.213000000
O     1.966000000     4.011000000     0.254000000
H     2.263000000     4.453000000     1.049000000
H     1.082000000     3.710000000     0.463000000
O     4.031000000    -3.101000000    -1.622000000
H     3.829000000    -2.770000000    -0.747000000
H     4.541000000    -3.896000000    -1.466000000
O    -5.850000000    -2.818000000     5.812000000
H    -6.642000000    -2.532000000     5.357000000
H    -5.150000000    -2.285000000     5.434000000
O    -4.409000000    -2.681000000     1.733000000
H    -5.009000000    -2.102000000     1.263000000
H    -3.674000000    -2.117000000     1.976000000
O    -3.970000000    -5.449000000     2.669000000
H    -3.915000000    -4.503000000     2.532000000
H    -3.442000000    -5.609000000     3.451000000
O    -0.310000000     1.034000000     7.639000000
H    -1.120000000     1.493000000     7.862000000
H    -0.199000000     0.392000000     8.340000000
O     2.650000000    -1.923000000     0.593000000
H     1.954000000    -1.275000000     0.484000000
H     3.399000000    -1.419000000     0.911000000
O     0.499000000     2.433000000     5.245000000
H     1.377000000     2.064000000     5.338000000
H    -0.077000000     1.788000000     5.656000000
O     5.249000000    -0.388000000     0.623000000
H     5.693000000    -0.794000000    -0.121000000
H     4.951000000     0.459000000     0.292000000
O    -2.020000000    -2.123000000     6.137000000
H    -1.938000000    -2.825000000     6.782000000
H    -1.611000000    -2.475000000     5.346000000
O     4.029000000     0.706000000     2.949000000
H     3.798000000     1.466000000     2.414000000
H     4.496000000     0.124000000     2.350000000
O    -4.377000000    -1.467000000    -4.504000000
H    -3.495000000    -1.100000000    -4.558000000
H    -4.238000000    -2.406000000    -4.379000000
O     3.241000000     0.440000000    -5.263000000
H     3.714000000     0.544000000    -6.088000000
H     2.623000000     1.170000000    -5.247000000
O    -4.929000000     0.470000000    -1.808000000
H    -4.178000000     1.055000000    -1.912000000
H    -4.744000000    -0.264000000    -2.393000000
O     2.277000000    -2.039000000    -4.021000000
H     2.566000000    -1.785000000    -3.145000000
H     2.464000000    -1.275000000    -4.566000000
O    -3.533000000     1.917000000    -5.249000000
H    -2.682000000     1.869000000    -5.685000000
H    -3.363000000     2.408000000    -4.445000000
O     3.587000000     4.227000000    -5.364000000
H     2.782000000     3.858000000    -5.728000000
H     3.890000000     4.844000000    -6.029000000
