161
-3040.67806
C    -1.054000000     0.524000000     0.950000000
H    -1.910000000     0.786000000     1.566000000
C    -0.861000000     0.869000000    -0.387000000
H    -1.562000000     1.620000000    -0.742000000
C     0.167000000     0.291000000    -1.190000000
C     0.282000000     0.767000000    -2.621000000
H    -0.542000000     0.550000000    -3.305000000
H     0.408000000     1.852000000    -2.584000000
H     1.166000000     0.397000000    -3.143000000
C     0.967000000    -0.708000000    -0.640000000
H     1.613000000    -1.266000000    -1.313000000
C     0.875000000    -0.991000000     0.721000000
H     1.569000000    -1.715000000     1.139000000
C    -0.139000000    -0.387000000     1.518000000
C    -0.276000000    -0.766000000     2.984000000
O     0.326000000    -1.726000000     3.394000000
O    -1.024000000    -0.096000000     3.652000000
O     2.048000000    -5.911000000    -1.580000000
H     1.687000000    -5.159000000    -2.049000000
H     1.586000000    -6.665000000    -1.944000000
O     6.284000000    -0.793000000    -1.637000000
H     6.654000000    -0.079000000    -1.117000000
H     5.717000000    -1.264000000    -1.027000000
O    -3.530000000    -1.882000000    -3.891000000
H    -3.881000000    -2.617000000    -4.393000000
H    -2.605000000    -1.844000000    -4.136000000
O     1.501000000    -3.091000000    -3.192000000
H     0.783000000    -2.645000000    -3.640000000
H     2.219000000    -3.084000000    -3.824000000
O     2.731000000     2.696000000     2.459000000
H     3.092000000     2.344000000     1.645000000
H     1.789000000     2.751000000     2.300000000
O     2.722000000    -6.280000000     1.158000000
H     2.091000000    -5.592000000     1.370000000
H     2.733000000    -6.307000000     0.201000000
O     3.827000000     1.478000000     0.104000000
H     4.771000000     1.317000000     0.108000000
H     3.436000000     0.606000000     0.058000000
O     2.068000000     3.463000000    -1.057000000
H     2.523000000     2.770000000    -0.578000000
H     1.352000000     3.723000000    -0.478000000
O     0.966000000     1.977000000     7.883000000
H     0.703000000     2.764000000     7.407000000
H     1.081000000     1.313000000     7.204000000
O     0.797000000     0.052000000     5.928000000
H     0.058000000    -0.054000000     5.330000000
H     1.551000000     0.189000000     5.354000000
O     6.369000000    -2.278000000     1.286000000
H     6.264000000    -2.036000000     2.206000000
H     5.546000000    -2.710000000     1.057000000
O    -3.244000000     0.036000000     8.152000000
H    -2.867000000    -0.678000000     8.666000000
H    -2.771000000     0.008000000     7.320000000
O     2.963000000     1.435000000    -4.676000000
H     3.625000000     0.982000000    -4.153000000
H     2.366000000     0.742000000    -4.960000000
O    -4.763000000    -1.544000000    -1.514000000
H    -4.201000000    -1.573000000    -2.288000000
H    -5.630000000    -1.322000000    -1.856000000
O    -1.671000000     2.923000000     4.497000000
H    -1.776000000     1.996000000     4.284000000
H    -0.724000000     3.052000000     4.548000000
O     4.927000000    -4.398000000    -2.140000000
H     5.761000000    -4.650000000    -2.536000000
H     4.328000000    -4.303000000    -2.881000000
O    -4.980000000     0.309000000     2.760000000
H    -4.215000000     0.872000000     2.883000000
H    -5.726000000     0.907000000     2.806000000
O    -2.741000000     3.449000000    -2.741000000
H    -2.369000000     4.322000000    -2.616000000
H    -3.297000000     3.534000000    -3.516000000
O    -0.558000000    -3.491000000     5.570000000
H    -0.358000000    -2.818000000     4.920000000
H    -1.404000000    -3.846000000     5.296000000
O    -1.406000000    -5.244000000    -0.527000000
H    -0.985000000    -5.586000000     0.262000000
H    -1.122000000    -4.331000000    -0.573000000
O     4.413000000     4.329000000    -2.358000000
H     3.496000000     4.123000000    -2.176000000
H     4.404000000     5.250000000    -2.621000000
O     4.109000000    -2.196000000    -0.594000000
H     4.220000000    -2.985000000    -1.124000000
H     3.163000000    -2.126000000    -0.465000000
O    -5.065000000     0.568000000    -4.092000000
H    -5.914000000     0.359000000    -3.703000000
H    -4.489000000    -0.140000000    -3.804000000
O     1.192000000    -0.590000000    -6.172000000
H     1.771000000    -1.143000000    -6.697000000
H     0.444000000    -0.416000000    -6.744000000
O    -0.327000000     3.422000000    -6.254000000
H    -0.396000000     2.468000000    -6.285000000
H     0.352000000     3.591000000    -5.601000000
O     1.127000000    -2.189000000     7.785000000
H     0.531000000    -2.748000000     7.287000000
H     0.978000000    -1.310000000     7.437000000
O    -1.222000000     0.551000000    -7.351000000
H    -2.154000000     0.334000000    -7.347000000
H    -1.108000000     1.103000000    -8.124000000
O     3.156000000     1.644000000     4.999000000
H     4.079000000     1.725000000     5.240000000
H     3.146000000     1.757000000     4.048000000
O    -4.056000000    -3.176000000     0.611000000
H    -4.293000000    -2.641000000    -0.146000000
H    -3.125000000    -3.362000000     0.491000000
O    -1.426000000    -2.562000000    -0.994000000
H    -1.015000000    -2.614000000    -1.857000000
H    -1.316000000    -1.648000000    -0.731000000
O    -1.614000000     5.044000000     0.607000000
H    -1.587000000     5.374000000    -0.291000000
H    -1.918000000     5.788000000     1.127000000
O    -3.953000000     2.923000000    -0.337000000
H    -3.411000000     2.892000000    -1.126000000
H    -4.378000000     2.066000000    -0.305000000
O     3.019000000    -1.520000000     4.183000000
H     3.506000000    -2.332000000     4.040000000
H     2.178000000    -1.667000000     3.749000000
O    -4.500000000    -2.426000000     3.069000000
H    -4.503000000    -2.916000000     2.247000000
H    -4.641000000    -1.516000000     2.806000000
O    -3.243000000    -0.069000000     5.272000000
H    -2.399000000    -0.057000000     4.820000000
H    -3.669000000    -0.868000000     4.962000000
O     1.764000000     3.816000000    -4.203000000
H     1.545000000     3.966000000    -3.283000000
H     2.379000000     3.083000000    -4.186000000
O    -4.886000000     1.995000000     6.425000000
H    -4.710000000     1.728000000     7.327000000
H    -4.261000000     1.495000000     5.901000000
O     2.410000000    -5.470000000     4.598000000
H     3.274000000    -5.120000000     4.379000000
H     1.803000000    -4.963000000     4.059000000
O    -0.704000000    -2.136000000    -4.321000000
H    -0.187000000    -1.626000000    -4.943000000
H    -1.033000000    -2.875000000    -4.832000000
O     4.548000000    -3.630000000     3.850000000
H     4.938000000    -4.094000000     3.110000000
H     5.054000000    -3.921000000     4.609000000
O    -4.915000000     0.534000000     0.099000000
H    -4.934000000     0.318000000     1.031000000
H    -4.972000000    -0.312000000    -0.345000000
O     5.264000000     0.255000000    -3.829000000
H     5.857000000     0.983000000    -4.014000000
H     5.682000000    -0.218000000    -3.110000000
O     0.473000000    -4.479000000     2.452000000
H     0.175000000    -3.593000000     2.659000000
H    -0.236000000    -5.046000000     2.755000000
O    -2.481000000    -4.260000000     3.823000000
H    -3.049000000    -3.492000000     3.756000000
H    -2.838000000    -4.879000000     3.187000000
O    -3.719000000     3.164000000     2.608000000
H    -3.570000000     3.576000000     1.757000000
H    -2.874000000     3.219000000     3.053000000
O     0.320000000     3.159000000     1.623000000
H    -0.326000000     3.662000000     1.128000000
H     0.029000000     2.250000000     1.541000000
O    -5.630000000     4.982000000    -0.670000000
H    -5.274000000     5.790000000    -1.040000000
H    -4.860000000     4.447000000    -0.478000000
O     0.183000000    -6.201000000     6.217000000
H    -0.161000000    -5.376000000     5.874000000
H     0.975000000    -6.362000000     5.704000000
