161
-3047.28587
C    -0.754000000    -0.502000000     1.114000000
H    -1.463000000    -0.939000000     1.812000000
C    -0.828000000     0.799000000     0.680000000
H    -1.523000000     1.472000000     1.175000000
C    -0.017000000     1.128000000    -0.342000000
C    -0.141000000     2.554000000    -0.918000000
H    -0.789000000     2.581000000    -1.797000000
H    -0.421000000     3.205000000    -0.088000000
H     0.872000000     2.865000000    -1.180000000
C     0.850000000     0.261000000    -0.992000000
H     1.563000000     0.501000000    -1.777000000
C     0.928000000    -1.067000000    -0.507000000
H     1.669000000    -1.753000000    -0.909000000
C     0.032000000    -1.420000000     0.493000000
C     0.023000000    -2.869000000     0.959000000
O     0.649000000    -3.731000000     0.402000000
O    -0.655000000    -3.093000000     1.882000000
O     0.297000000    -3.786000000    -2.149000000
H     1.050000000    -4.241000000    -2.526000000
H     0.388000000    -3.914000000    -1.205000000
O    -1.135000000     3.492000000    -4.974000000
H    -0.607000000     2.759000000    -5.291000000
H    -0.503000000     4.196000000    -4.825000000
O    -1.171000000     4.173000000     2.726000000
H    -1.096000000     3.743000000     3.578000000
H    -1.920000000     3.747000000     2.308000000
O    -0.899000000    -7.441000000    -2.701000000
H    -1.356000000    -6.631000000    -2.473000000
H    -1.435000000    -8.134000000    -2.316000000
O    -0.295000000    -1.715000000     4.504000000
H    -0.401000000    -2.234000000     3.706000000
H     0.076000000    -2.327000000     5.140000000
O     0.651000000     0.708000000     4.905000000
H     0.271000000    -0.156000000     4.748000000
H     1.249000000     0.576000000     5.641000000
O     3.202000000    -3.583000000     0.612000000
H     2.314000000    -3.935000000     0.563000000
H     3.765000000    -4.320000000     0.378000000
O     3.716000000     4.440000000    -5.416000000
H     3.399000000     3.817000000    -4.762000000
H     3.241000000     4.211000000    -6.215000000
O     5.533000000    -0.603000000     1.512000000
H     6.482000000    -0.607000000     1.639000000
H     5.197000000    -1.183000000     2.196000000
O    -3.474000000     2.733000000    -4.084000000
H    -2.605000000     3.099000000    -4.248000000
H    -3.331000000     1.787000000    -4.042000000
O     4.067000000     0.439000000    -2.936000000
H     3.904000000     1.215000000    -2.399000000
H     4.322000000    -0.238000000    -2.308000000
O     3.889000000    -2.456000000     3.044000000
H     3.722000000    -2.617000000     2.115000000
H     3.707000000    -3.295000000     3.468000000
O     2.196000000     0.804000000     2.467000000
H     1.535000000     0.919000000     3.150000000
H     1.709000000     0.462000000     1.717000000
O     0.235000000    -5.690000000     2.832000000
H    -0.040000000    -6.241000000     2.100000000
H     0.196000000    -4.797000000     2.489000000
O     1.900000000    -7.783000000    -2.227000000
H     2.111000000    -6.866000000    -2.405000000
H     0.964000000    -7.854000000    -2.415000000
O     4.255000000     4.881000000    -1.601000000
H     4.853000000     4.270000000    -2.033000000
H     4.824000000     5.446000000    -1.079000000
O     1.962000000    -4.958000000    -4.071000000
H     2.246000000    -5.501000000    -4.806000000
H     2.509000000    -4.175000000    -4.126000000
O     0.797000000     7.962000000     1.458000000
H     0.742000000     7.007000000     1.491000000
H     1.456000000     8.186000000     2.115000000
O     0.001000000    -2.675000000    -4.776000000
H     0.386000000    -3.309000000    -5.381000000
H     0.371000000    -2.902000000    -3.923000000
O    -3.761000000     1.789000000     4.209000000
H    -3.835000000     0.916000000     3.821000000
H    -3.787000000     1.634000000     5.153000000
O     2.345000000    -8.662000000     0.888000000
H     3.069000000    -9.174000000     0.526000000
H     2.705000000    -7.781000000     0.996000000
O     6.252000000    -3.554000000    -1.392000000
H     6.012000000    -2.696000000    -1.041000000
H     6.621000000    -3.365000000    -2.255000000
O     2.563000000    -4.520000000     4.507000000
H     1.964000000    -5.139000000     4.088000000
H     2.073000000    -4.183000000     5.257000000
O    -2.525000000     5.026000000    -2.320000000
H    -1.685000000     4.704000000    -2.646000000
H    -2.971000000     4.245000000    -1.994000000
O    -3.010000000     7.509000000    -0.988000000
H    -3.794000000     7.315000000    -0.475000000
H    -2.745000000     6.664000000    -1.350000000
O    -4.010000000    -2.630000000    -0.410000000
H    -4.439000000    -3.103000000    -1.123000000
H    -3.178000000    -2.339000000    -0.782000000
O     1.729000000     5.858000000    -1.726000000
H     1.300000000     5.587000000    -0.914000000
H     2.615000000     5.501000000    -1.660000000
O     4.374000000    -1.395000000    -0.786000000
H     3.997000000    -2.224000000    -0.491000000
H     4.842000000    -1.060000000    -0.022000000
O    -6.521000000    -2.098000000     0.815000000
H    -7.002000000    -2.877000000     0.535000000
H    -5.609000000    -2.287000000     0.594000000
O    -1.409000000     2.812000000     5.092000000
H    -0.731000000     2.140000000     5.156000000
H    -2.221000000     2.322000000     4.966000000
O     2.486000000     3.566000000     2.816000000
H     2.329000000     2.633000000     2.668000000
H     2.307000000     3.694000000     3.748000000
O    -3.483000000     3.320000000     1.571000000
H    -4.038000000     3.048000000     2.302000000
H    -4.099000000     3.541000000     0.872000000
O    -2.176000000    -4.846000000    -2.255000000
H    -2.549000000    -4.662000000    -1.394000000
H    -1.260000000    -4.576000000    -2.183000000
O    -4.784000000    -0.589000000     2.824000000
H    -5.667000000    -0.846000000     2.561000000
H    -4.252000000    -1.371000000     2.674000000
O    -5.112000000     4.101000000    -0.718000000
H    -5.544000000     3.819000000    -1.525000000
H    -5.550000000     4.920000000    -0.486000000
O     6.227000000     1.311000000    -0.782000000
H     5.680000000     0.780000000    -0.203000000
H     7.031000000     1.459000000    -0.284000000
O     4.039000000    -6.669000000     1.899000000
H     4.719000000    -6.535000000     2.559000000
H     4.428000000    -6.348000000     1.085000000
O    -4.685000000    -5.137000000     3.913000000
H    -4.520000000    -5.988000000     3.507000000
H    -4.178000000    -4.518000000     3.387000000
O    -2.007000000    -3.882000000     5.443000000
H    -2.547000000    -4.097000000     4.682000000
H    -1.975000000    -2.925000000     5.452000000
O     1.523000000     2.224000000    -6.040000000
H     2.415000000     1.886000000    -6.120000000
H     1.010000000     1.693000000    -6.650000000
O    -1.786000000    -1.698000000    -1.807000000
H    -1.488000000    -0.914000000    -1.346000000
H    -1.033000000    -2.289000000    -1.785000000
O     3.870000000     0.807000000    -5.948000000
H     3.404000000     0.264000000    -6.583000000
H     4.035000000     0.223000000    -5.208000000
O    -0.282000000    -7.176000000     0.436000000
H    -0.864000000    -7.933000000     0.381000000
H     0.593000000    -7.534000000     0.285000000
O     3.423000000    -2.850000000    -3.515000000
H     3.962000000    -2.307000000    -4.091000000
H     3.778000000    -2.695000000    -2.639000000
O    -2.118000000    -4.951000000     0.566000000
H    -1.623000000    -5.721000000     0.286000000
H    -1.474000000    -4.401000000     1.012000000
O     0.520000000     5.371000000    -3.995000000
H     0.858000000     5.446000000    -3.103000000
H    -0.057000000     6.128000000    -4.097000000
O     0.813000000     5.195000000     1.161000000
H     1.391000000     4.637000000     1.680000000
H    -0.068000000     4.979000000     1.468000000
O    -3.331000000    -2.972000000     2.640000000
H    -2.379000000    -2.889000000     2.580000000
H    -3.583000000    -3.422000000     1.834000000
