161
-3049.87810
C    -0.032000000    -0.975000000     1.059000000
H    -0.161000000    -1.834000000     1.713000000
C    -1.034000000    -0.110000000     0.784000000
H    -1.960000000    -0.178000000     1.348000000
C    -0.856000000     0.823000000    -0.254000000
C    -1.988000000     1.712000000    -0.553000000
H    -1.730000000     2.740000000    -0.816000000
H    -2.502000000     1.276000000    -1.412000000
H    -2.738000000     1.650000000     0.238000000
C     0.371000000     0.933000000    -0.865000000
H     0.451000000     1.691000000    -1.639000000
C     1.385000000    -0.027000000    -0.605000000
H     2.319000000     0.139000000    -1.136000000
C     1.146000000    -0.972000000     0.362000000
C     2.172000000    -1.996000000     0.556000000
O     3.192000000    -1.936000000    -0.093000000
O     1.969000000    -2.935000000     1.320000000
O    -4.231000000     2.524000000    -3.708000000
H    -3.367000000     2.238000000    -4.005000000
H    -4.283000000     2.225000000    -2.800000000
O     1.608000000    -7.539000000    -0.329000000
H     0.845000000    -7.332000000     0.212000000
H     1.993000000    -8.311000000     0.086000000
O     4.849000000    -3.872000000    -1.121000000
H     4.792000000    -3.830000000    -2.076000000
H     4.237000000    -3.201000000    -0.816000000
O     2.002000000     2.349000000     2.922000000
H     2.465000000     2.570000000     2.114000000
H     1.415000000     3.090000000     3.071000000
O     0.413000000    -1.671000000    -2.825000000
H     1.329000000    -1.943000000    -2.867000000
H     0.383000000    -1.038000000    -2.108000000
O     3.408000000    -2.535000000     3.798000000
H     2.843000000    -1.888000000     4.221000000
H     3.137000000    -2.525000000     2.880000000
O     3.378000000     3.275000000    -3.061000000
H     2.703000000     3.693000000    -2.526000000
H     3.083000000     3.403000000    -3.962000000
O    -3.271000000    -3.013000000    -2.508000000
H    -2.849000000    -2.155000000    -2.560000000
H    -2.673000000    -3.542000000    -1.980000000
O     3.413000000    -5.371000000     0.875000000
H     3.219000000    -4.456000000     1.078000000
H     3.717000000    -5.355000000    -0.032000000
O    -4.810000000    -2.525000000     1.289000000
H    -5.426000000    -2.690000000     2.003000000
H    -3.956000000    -2.467000000     1.718000000
O    -0.375000000    -6.080000000     3.008000000
H     0.010000000    -6.928000000     2.790000000
H    -0.970000000    -6.266000000     3.735000000
O     5.772000000    -3.449000000    -3.626000000
H     4.966000000    -2.932000000    -3.663000000
H     6.017000000    -3.576000000    -4.542000000
O     4.095000000     0.698000000    -2.894000000
H     3.830000000     1.580000000    -3.154000000
H     4.605000000     0.826000000    -2.094000000
O     3.449000000    -1.909000000    -3.170000000
H     3.443000000    -1.532000000    -2.290000000
H     3.657000000    -1.173000000    -3.745000000
O    -3.018000000     6.718000000    -1.897000000
H    -3.411000000     7.468000000    -2.344000000
H    -2.403000000     6.355000000    -2.534000000
O     0.577000000     5.334000000    -1.642000000
H    -0.248000000     5.193000000    -1.177000000
H     1.247000000     4.999000000    -1.046000000
O    -5.894000000     0.732000000     2.076000000
H    -5.313000000     0.202000000     2.621000000
H    -6.476000000     0.097000000     1.659000000
O    -1.594000000     5.638000000    -3.904000000
H    -2.201000000     4.899000000    -3.867000000
H    -1.069000000     5.478000000    -4.688000000
O    -1.554000000     2.326000000    -4.193000000
H    -1.042000000     2.434000000    -4.994000000
H    -0.939000000     1.944000000    -3.566000000
O    -0.724000000    -1.786000000     4.979000000
H    -0.556000000    -2.120000000     5.861000000
H    -0.135000000    -2.288000000     4.417000000
O     0.423000000    -4.725000000    -3.384000000
H     0.464000000    -4.467000000    -4.305000000
H     0.663000000    -3.933000000    -2.903000000
O     0.745000000    -3.728000000     3.777000000
H     0.637000000    -4.623000000     3.458000000
H     1.282000000    -3.299000000     3.110000000
O     1.727000000     1.176000000    -4.542000000
H     2.199000000     0.411000000    -4.873000000
H     2.220000000     1.444000000    -3.767000000
O    -0.427000000    -0.354000000    -4.959000000
H    -0.185000000    -0.936000000    -4.239000000
H     0.298000000     0.268000000    -5.018000000
O    -6.166000000     3.694000000    -1.306000000
H    -5.825000000     3.204000000    -0.557000000
H    -7.113000000     3.559000000    -1.270000000
O     5.560000000    -0.864000000     0.233000000
H     4.718000000    -1.312000000     0.152000000
H     6.195000000    -1.568000000     0.366000000
O     0.566000000     4.781000000     2.931000000
H    -0.360000000     5.016000000     2.987000000
H     1.028000000     5.619000000     2.966000000
O     2.990000000     4.557000000    -0.272000000
H     3.310000000     3.719000000     0.061000000
H     2.985000000     5.132000000     0.493000000
O     3.619000000     2.167000000     0.751000000
H     4.267000000     2.040000000     0.057000000
H     3.911000000     1.594000000     1.459000000
O    -2.192000000     2.134000000     2.833000000
H    -1.827000000     3.014000000     2.929000000
H    -1.438000000     1.583000000     2.627000000
O    -5.472000000     6.159000000    -0.976000000
H    -5.706000000     5.232000000    -1.002000000
H    -4.599000000     6.198000000    -1.365000000
O    -2.948000000    -0.341000000    -3.340000000
H    -3.613000000    -0.569000000    -3.989000000
H    -2.284000000     0.137000000    -3.836000000
O     6.642000000    -2.647000000     2.741000000
H     7.256000000    -1.914000000     2.703000000
H     5.940000000    -2.343000000     3.317000000
O    -3.919000000     0.118000000     3.860000000
H    -4.298000000     0.712000000     4.508000000
H    -3.291000000     0.657000000     3.379000000
O    -1.688000000     5.871000000     0.317000000
H    -1.458000000     6.762000000     0.581000000
H    -2.267000000     5.987000000    -0.437000000
O    -2.797000000    -2.507000000     3.477000000
H    -2.057000000    -2.456000000     4.083000000
H    -3.108000000    -1.604000000     3.404000000
O     1.595000000    -0.456000000     3.977000000
H     1.409000000     0.295000000     3.413000000
H     0.795000000    -0.574000000     4.489000000
O     5.796000000     1.560000000    -0.976000000
H     5.913000000     0.649000000    -0.707000000
H     6.428000000     1.684000000    -1.685000000
O    -5.505000000    -1.392000000    -1.300000000
H    -4.740000000    -1.299000000    -1.868000000
H    -5.189000000    -1.905000000    -0.556000000
O     6.999000000    -4.634000000     0.794000000
H     6.730000000    -4.019000000     1.477000000
H     6.382000000    -4.481000000     0.078000000
O    -1.987000000     0.198000000     6.489000000
H    -1.746000000    -0.315000000     5.717000000
H    -1.204000000     0.712000000     6.689000000
O     2.090000000    -5.398000000     5.556000000
H     1.716000000    -4.798000000     4.910000000
H     3.034000000    -5.247000000     5.504000000
O    -2.323000000     4.883000000     2.914000000
H    -2.308000000     5.174000000     2.003000000
H    -3.197000000     4.511000000     3.033000000
O    -4.839000000     3.000000000     0.952000000
H    -4.198000000     3.358000000     1.566000000
H    -5.140000000     2.190000000     1.364000000
O     5.623000000     0.744000000     2.693000000
H     6.464000000     1.149000000     2.483000000
H     5.434000000     0.181000000     1.941000000
O    -1.782000000    -4.506000000    -0.969000000
H    -0.826000000    -4.538000000    -0.946000000
H    -2.048000000    -4.609000000    -0.055000000
O    -2.496000000    -4.553000000     1.601000000
H    -2.724000000    -4.153000000     2.440000000
H    -1.873000000    -5.244000000     1.825000000
O     0.865000000    -4.349000000    -0.475000000
H     1.399000000    -5.138000000    -0.563000000
H     1.322000000    -3.823000000     0.181000000
