161
-3063.07452
C    -1.082000000    -0.961000000     0.191000000
H    -2.002000000    -1.539000000     0.154000000
C    -1.011000000     0.115000000    -0.689000000
H    -1.775000000     0.230000000    -1.453000000
C     0.123000000     0.953000000    -0.773000000
C     0.085000000     1.994000000    -1.906000000
H     1.020000000     2.195000000    -2.434000000
H    -0.596000000     1.629000000    -2.677000000
H    -0.233000000     2.990000000    -1.592000000
C     1.137000000     0.743000000     0.130000000
H     2.054000000     1.321000000     0.214000000
C     1.079000000    -0.347000000     1.010000000
H     1.946000000    -0.411000000     1.664000000
C     0.024000000    -1.228000000     1.021000000
C    -0.174000000    -2.293000000     2.107000000
O     0.475000000    -2.295000000     3.081000000
O    -1.075000000    -3.104000000     1.955000000
O    -1.027000000    -0.482000000     6.194000000
H    -1.372000000     0.135000000     6.839000000
H    -0.520000000     0.061000000     5.590000000
O    -3.211000000     2.564000000    -3.544000000
H    -2.939000000     3.455000000    -3.762000000
H    -3.715000000     2.659000000    -2.735000000
O     0.205000000    -6.461000000     5.397000000
H     0.314000000    -6.246000000     4.471000000
H    -0.163000000    -5.668000000     5.786000000
O    -2.148000000     3.697000000     0.397000000
H    -2.852000000     3.756000000    -0.248000000
H    -2.441000000     3.024000000     1.011000000
O    -3.445000000    -1.338000000    -4.144000000
H    -2.740000000    -0.691000000    -4.178000000
H    -3.024000000    -2.135000000    -3.823000000
O     5.105000000     3.013000000    -1.212000000
H     5.482000000     3.878000000    -1.373000000
H     5.737000000     2.579000000    -0.639000000
O     2.397000000    -3.837000000     4.218000000
H     2.211000000    -3.830000000     5.157000000
H     1.706000000    -3.298000000     3.834000000
O     3.156000000     5.330000000    -3.814000000
H     3.542000000     6.182000000    -4.017000000
H     2.212000000     5.484000000    -3.832000000
O     0.750000000    -2.792000000    -3.659000000
H     0.764000000    -1.836000000    -3.698000000
H     0.847000000    -3.071000000    -4.570000000
O     0.055000000    -5.826000000     2.730000000
H    -0.145000000    -4.946000000     2.410000000
H    -0.577000000    -6.391000000     2.286000000
O     2.202000000     3.051000000    -5.683000000
H     2.486000000     3.811000000    -5.174000000
H     2.169000000     2.337000000    -5.047000000
O     1.970000000    -0.546000000     5.587000000
H     1.784000000    -1.448000000     5.847000000
H     1.246000000    -0.311000000     5.006000000
O     1.236000000    -0.200000000    -5.525000000
H     1.176000000    -1.061000000    -5.941000000
H     2.128000000    -0.162000000    -5.181000000
O    -1.836000000    -3.568000000    -2.756000000
H    -1.778000000    -3.784000000    -1.825000000
H    -0.933000000    -3.391000000    -3.018000000
O     1.801000000    -3.030000000     7.114000000
H     1.574000000    -2.248000000     7.617000000
H     0.978000000    -3.511000000     7.034000000
O    -3.369000000    -6.306000000     4.293000000
H    -2.999000000    -6.771000000     5.043000000
H    -3.018000000    -6.764000000     3.530000000
O     0.383000000     5.314000000    -4.333000000
H     0.030000000     5.200000000    -5.215000000
H    -0.341000000     5.079000000    -3.752000000
O    -1.902000000    -2.831000000     4.771000000
H    -1.741000000    -1.925000000     5.036000000
H    -1.284000000    -2.986000000     4.057000000
O    -3.893000000    -3.586000000     2.130000000
H    -3.987000000    -4.412000000     2.604000000
H    -2.948000000    -3.437000000     2.094000000
O     3.012000000    -0.557000000    -2.622000000
H     2.885000000     0.392000000    -2.636000000
H     3.401000000    -0.735000000    -1.766000000
O    -1.705000000     0.738000000    -5.019000000
H    -0.778000000     0.950000000    -4.904000000
H    -2.168000000     1.426000000    -4.542000000
O    -4.288000000     3.887000000    -1.406000000
H    -3.974000000     4.518000000    -2.054000000
H    -5.219000000     4.088000000    -1.309000000
O     3.592000000    -2.334000000     2.356000000
H     3.608000000    -2.696000000     3.242000000
H     3.328000000    -3.068000000     1.801000000
O    -2.404000000     6.301000000    -0.640000000
H    -2.190000000     5.461000000    -0.234000000
H    -2.225000000     6.948000000     0.042000000
O    -5.405000000     1.290000000     2.709000000
H    -5.785000000     0.541000000     2.249000000
H    -4.473000000     1.256000000     2.494000000
O    -1.306000000     4.405000000     3.097000000
H    -1.377000000     4.541000000     2.152000000
H    -0.545000000     3.834000000     3.200000000
O    -2.593000000     5.092000000    -4.575000000
H    -2.946000000     5.019000000    -5.462000000
H    -3.015000000     5.870000000    -4.212000000
O     0.730000000     4.446000000     0.522000000
H    -0.099000000     4.036000000     0.273000000
H     0.999000000     3.980000000     1.314000000
O    -6.494000000    -0.854000000     1.296000000
H    -5.724000000    -1.081000000     0.775000000
H    -7.198000000    -0.759000000     0.654000000
O     4.549000000     0.108000000     3.147000000
H     3.886000000     0.683000000     3.531000000
H     4.047000000    -0.607000000     2.756000000
O     3.026000000     5.300000000    -0.473000000
H     2.142000000     5.037000000    -0.218000000
H     3.179000000     4.853000000    -1.306000000
O    -5.909000000    -2.495000000     4.011000000
H    -5.832000000    -3.253000000     4.590000000
H    -5.230000000    -2.631000000     3.349000000
O     0.177000000     0.457000000     3.759000000
H     0.538000000     1.223000000     3.312000000
H     0.405000000    -0.280000000     3.192000000
O     4.095000000     2.381000000    -3.417000000
H     4.382000000     3.251000000    -3.694000000
H     4.284000000     2.354000000    -2.479000000
O    -4.304000000    -2.296000000    -0.324000000
H    -4.159000000    -2.848000000     0.444000000
H    -3.625000000    -2.564000000    -0.943000000
O     4.482000000    -2.053000000    -0.616000000
H     5.405000000    -2.304000000    -0.571000000
H     4.032000000    -2.693000000    -0.064000000
O     3.780000000     3.297000000     1.531000000
H     3.613000000     4.133000000     1.097000000
H     4.547000000     2.943000000     1.081000000
O     1.173000000     2.826000000     2.832000000
H     2.023000000     2.773000000     2.394000000
H     1.387000000     3.013000000     3.746000000
O     6.844000000    -1.000000000     2.706000000
H     5.986000000    -0.613000000     2.878000000
H     7.457000000    -0.270000000     2.785000000
O    -2.641000000     1.427000000     2.318000000
H    -1.813000000     1.413000000     2.797000000
H    -2.449000000     0.981000000     1.493000000
O     2.895000000    -6.135000000     2.744000000
H     2.176000000    -6.293000000     2.132000000
H     2.604000000    -5.389000000     3.268000000
O     5.881000000     1.517000000     0.921000000
H     6.380000000     0.895000000     0.392000000
H     5.407000000     0.970000000     1.548000000
O     3.635000000     1.812000000     4.956000000
H     3.318000000     1.033000000     5.413000000
H     3.023000000     2.503000000     5.207000000
O    -2.169000000    -6.697000000     1.719000000
H    -2.662000000    -6.187000000     1.077000000
H    -2.133000000    -7.579000000     1.349000000
O     3.958000000     0.493000000    -5.451000000
H     4.691000000    -0.027000000    -5.780000000
H     4.322000000     0.981000000    -4.713000000
O    -0.679000000    -4.296000000     6.612000000
H    -1.118000000    -3.652000000     6.057000000
H    -1.234000000    -4.361000000     7.390000000
O    -1.802000000    -4.381000000    -0.292000000
H    -1.149000000    -5.081000000    -0.311000000
H    -1.476000000    -3.769000000     0.368000000
O     2.821000000    -4.125000000     0.306000000
H     2.376000000    -4.103000000    -0.541000000
H     2.895000000    -5.057000000     0.514000000
