161
-3021.24547
C    -1.226000000    -0.673000000     0.426000000
H    -2.139000000    -1.174000000     0.736000000
C    -0.890000000    -0.338000000    -0.975000000
H    -1.508000000    -0.600000000    -1.830000000
C     0.348000000     0.103000000    -1.175000000
C     0.740000000     0.473000000    -2.566000000
H     1.491000000     1.264000000    -2.531000000
H     1.209000000    -0.325000000    -3.145000000
H    -0.134000000     0.871000000    -3.086000000
C     1.212000000     0.444000000    -0.106000000
H     2.135000000     0.973000000    -0.330000000
C     0.808000000     0.227000000     1.246000000
H     1.547000000     0.590000000     1.955000000
C    -0.476000000    -0.274000000     1.527000000
C    -0.909000000    -0.467000000     2.911000000
O    -0.363000000     0.114000000     3.808000000
O    -1.844000000    -1.211000000     3.132000000
O    -0.700000000     3.488000000     5.809000000
H    -1.601000000     3.192000000     5.674000000
H    -0.414000000     3.032000000     6.600000000
O    -2.923000000    -3.764000000     6.645000000
H    -2.672000000    -4.330000000     7.375000000
H    -3.880000000    -3.768000000     6.656000000
O    -3.011000000    -3.132000000    -0.793000000
H    -2.266000000    -2.787000000    -1.285000000
H    -2.643000000    -3.380000000     0.055000000
O    -2.153000000     1.785000000    -5.149000000
H    -2.073000000     2.569000000    -4.604000000
H    -1.433000000     1.855000000    -5.776000000
O     5.326000000     2.436000000     2.781000000
H     5.813000000     2.794000000     3.523000000
H     5.110000000     1.541000000     3.045000000
O    -0.095000000    -3.920000000     0.372000000
H    -0.003000000    -4.690000000     0.933000000
H    -0.649000000    -3.323000000     0.875000000
O    -4.352000000    -4.918000000     0.814000000
H    -3.716000000    -4.561000000     1.434000000
H    -4.598000000    -4.173000000     0.266000000
O    -4.023000000    -0.805000000    -6.566000000
H    -3.787000000    -0.138000000    -7.209000000
H    -3.850000000    -0.394000000    -5.719000000
O     5.473000000     2.299000000    -0.145000000
H     5.465000000     1.981000000     0.758000000
H     6.208000000     2.910000000    -0.178000000
O     1.930000000    -1.359000000     7.307000000
H     1.443000000    -2.152000000     7.530000000
H     2.751000000    -1.438000000     7.794000000
O    -0.628000000    -3.310000000     4.658000000
H    -0.952000000    -2.429000000     4.473000000
H    -1.323000000    -3.718000000     5.175000000
O     3.294000000    -3.009000000    -4.624000000
H     3.491000000    -2.265000000    -4.055000000
H     4.140000000    -3.249000000    -5.004000000
O     3.655000000     1.763000000     7.222000000
H     4.363000000     1.565000000     6.609000000
H     2.907000000     1.976000000     6.664000000
O     2.297000000     2.014000000    -5.257000000
H     2.090000000     2.937000000    -5.404000000
H     2.157000000     1.884000000    -4.319000000
O     5.052000000    -0.320000000    -1.302000000
H     5.933000000    -0.562000000    -1.585000000
H     5.181000000     0.453000000    -0.752000000
O    -3.095000000    -0.067000000     7.067000000
H    -3.408000000    -0.727000000     6.448000000
H    -2.183000000     0.082000000     6.819000000
O     1.746000000     1.511000000    -7.883000000
H     2.053000000     1.740000000    -7.006000000
H     2.542000000     1.469000000    -8.412000000
O    -3.641000000     3.431000000    -0.178000000
H    -2.986000000     2.736000000    -0.121000000
H    -4.019000000     3.332000000    -1.052000000
O    -2.151000000    -2.349000000    -3.701000000
H    -2.657000000    -3.161000000    -3.689000000
H    -1.327000000    -2.586000000    -4.126000000
O     0.513000000     5.835000000    -3.438000000
H     0.035000000     6.634000000    -3.215000000
H     0.215000000     5.190000000    -2.796000000
O    -0.450000000    -0.129000000     6.610000000
H     0.448000000    -0.415000000     6.777000000
H    -0.497000000    -0.029000000     5.659000000
O    -4.008000000    -1.238000000     4.593000000
H    -4.421000000    -0.426000000     4.301000000
H    -3.231000000    -1.324000000     4.040000000
O     2.344000000    -2.461000000     0.489000000
H     1.807000000    -1.669000000     0.478000000
H     1.754000000    -3.154000000     0.192000000
O    -0.621000000     4.977000000    -0.748000000
H    -0.609000000     5.838000000    -0.330000000
H    -1.098000000     4.419000000    -0.134000000
O    -5.153000000     1.092000000     3.802000000
H    -5.426000000     2.009000000     3.792000000
H    -5.479000000     0.736000000     2.975000000
O    -0.959000000    -2.748000000    -6.837000000
H    -0.366000000    -2.594000000    -6.102000000
H    -0.715000000    -2.086000000    -7.484000000
O    -0.498000000     4.292000000    -5.755000000
H    -0.534000000     4.293000000    -4.799000000
H     0.407000000     4.528000000    -5.961000000
O    -0.972000000     2.634000000     0.279000000
H    -0.102000000     2.870000000    -0.042000000
H    -0.856000000     1.772000000     0.677000000
O    -0.337000000     4.195000000     3.381000000
H    -0.588000000     3.350000000     3.008000000
H    -0.559000000     4.122000000     4.310000000
O    -2.207000000     4.147000000    -3.011000000
H    -3.144000000     4.048000000    -2.844000000
H    -1.818000000     4.244000000    -2.142000000
O     2.195000000     0.006000000     4.503000000
H     2.334000000    -0.777000000     5.035000000
H     1.267000000    -0.023000000     4.271000000
O    -5.361000000    -3.676000000     4.397000000
H    -4.534000000    -4.117000000     4.204000000
H    -5.103000000    -2.810000000     4.711000000
O     2.289000000     3.167000000     4.535000000
H     2.474000000     2.294000000     4.190000000
H     1.376000000     3.329000000     4.298000000
O     4.544000000     2.596000000    -2.751000000
H     4.866000000     2.280000000    -1.907000000
H     5.253000000     3.142000000    -3.090000000
O    -0.090000000    -4.868000000    -2.227000000
H    -0.133000000    -4.345000000    -1.426000000
H     0.825000000    -4.809000000    -2.502000000
O    -5.557000000    -3.228000000    -1.534000000
H    -5.238000000    -3.638000000    -2.338000000
H    -4.839000000    -2.661000000    -1.252000000
O     3.764000000     5.638000000    -2.429000000
H     3.689000000     4.684000000    -2.399000000
H     4.684000000     5.800000000    -2.637000000
O     4.468000000    -2.283000000     2.260000000
H     5.323000000    -2.254000000     1.830000000
H     3.840000000    -2.348000000     1.541000000
O     3.373000000     4.000000000     0.600000000
H     4.066000000     3.765000000    -0.018000000
H     3.708000000     3.721000000     1.452000000
O     0.612000000    -2.529000000    -4.308000000
H     0.801000000    -1.617000000    -4.088000000
H     1.418000000    -2.850000000    -4.713000000
O    -2.494000000     1.736000000     4.377000000
H    -2.095000000     0.866000000     4.352000000
H    -3.430000000     1.574000000     4.258000000
O    -3.689000000     0.001000000    -4.096000000
H    -3.018000000     0.654000000    -4.293000000
H    -3.203000000    -0.739000000    -3.730000000
O     4.949000000    -0.011000000     3.825000000
H     5.108000000    -0.790000000     3.292000000
H     3.995000000     0.063000000     3.863000000
O     1.410000000    -5.172000000     4.221000000
H     0.781000000    -4.469000000     4.383000000
H     1.094000000    -5.903000000     4.751000000
O     3.993000000    -0.420000000    -6.643000000
H     3.241000000    -0.603000000    -7.206000000
H     3.647000000    -0.487000000    -5.753000000
O     3.811000000    -0.238000000    -3.866000000
H     4.042000000    -0.348000000    -2.943000000
H     4.039000000     0.670000000    -4.064000000
O    -2.254000000    -3.588000000     2.041000000
H    -1.975000000    -4.265000000     2.657000000
H    -2.059000000    -2.763000000     2.487000000
O     4.475000000    -3.431000000    -1.131000000
H     5.239000000    -2.942000000    -0.825000000
H     3.726000000    -2.914000000    -0.835000000
