161
-3047.31142
C    -0.313000000    -0.952000000     1.138000000
H    -0.607000000    -1.709000000     1.861000000
C    -0.616000000    -1.192000000    -0.207000000
H    -1.131000000    -2.102000000    -0.502000000
C    -0.353000000    -0.220000000    -1.147000000
C    -0.477000000    -0.484000000    -2.612000000
H    -0.244000000     0.334000000    -3.296000000
H     0.123000000    -1.370000000    -2.830000000
H    -1.517000000    -0.732000000    -2.835000000
C     0.318000000     0.966000000    -0.821000000
H     0.668000000     1.617000000    -1.619000000
C     0.606000000     1.261000000     0.490000000
H     1.210000000     2.133000000     0.730000000
C     0.284000000     0.315000000     1.531000000
C     0.606000000     0.633000000     2.951000000
O     1.236000000     1.619000000     3.328000000
O     0.204000000    -0.114000000     3.840000000
O     0.088000000    -2.786000000     6.277000000
H    -0.417000000    -2.524000000     7.047000000
H    -0.370000000    -3.557000000     5.941000000
O     1.247000000    -4.596000000    -0.332000000
H     0.829000000    -4.362000000    -1.161000000
H     2.172000000    -4.391000000    -0.464000000
O    -3.356000000     3.377000000    -2.813000000
H    -3.459000000     4.311000000    -2.630000000
H    -2.844000000     3.044000000    -2.075000000
O     2.961000000    -0.308000000     8.257000000
H     2.931000000    -0.405000000     7.305000000
H     3.895000000    -0.284000000     8.466000000
O    -2.544000000    -3.815000000    -6.841000000
H    -1.820000000    -4.345000000    -7.174000000
H    -2.321000000    -3.653000000    -5.924000000
O    -3.022000000    -2.901000000     2.586000000
H    -3.046000000    -3.484000000     3.345000000
H    -2.643000000    -2.088000000     2.920000000
O     0.893000000    -6.153000000     3.903000000
H     1.665000000    -6.287000000     4.453000000
H     1.208000000    -5.615000000     3.176000000
O     4.856000000     2.784000000    -0.555000000
H     5.206000000     3.437000000     0.049000000
H     5.132000000     1.944000000    -0.188000000
O     1.124000000    -2.686000000     3.890000000
H     0.777000000    -1.803000000     3.761000000
H     0.979000000    -2.867000000     4.818000000
O     3.168000000     3.902000000    -4.535000000
H     2.221000000     3.828000000    -4.650000000
H     3.524000000     3.135000000    -4.985000000
O    -2.037000000     2.010000000    -4.888000000
H    -1.147000000     2.211000000    -4.599000000
H    -2.599000000     2.367000000    -4.199000000
O    -2.676000000     4.183000000     2.752000000
H    -1.776000000     3.895000000     2.902000000
H    -3.012000000     4.384000000     3.626000000
O    -1.094000000    -7.042000000    -0.515000000
H    -0.952000000    -6.556000000     0.298000000
H    -2.038000000    -7.202000000    -0.536000000
O    -4.902000000    -1.059000000    -4.499000000
H    -4.455000000    -1.045000000    -3.652000000
H    -4.239000000    -0.764000000    -5.123000000
O    -1.068000000     2.521000000     5.097000000
H    -0.900000000     1.679000000     4.674000000
H    -0.711000000     3.169000000     4.491000000
O     2.413000000     0.385000000     5.618000000
H     1.571000000     0.449000000     5.168000000
H     3.049000000     0.236000000     4.918000000
O    -2.146000000    -0.618000000     4.813000000
H    -1.273000000    -0.429000000     4.467000000
H    -1.994000000    -0.863000000     5.725000000
O     4.687000000    -1.264000000    -1.834000000
H     3.873000000    -1.564000000    -2.238000000
H     5.026000000    -0.604000000    -2.439000000
O     2.019000000    -2.153000000    -6.048000000
H     2.241000000    -2.500000000    -5.183000000
H     1.869000000    -1.220000000    -5.900000000
O    -3.810000000     1.461000000     6.607000000
H    -3.280000000     0.674000000     6.740000000
H    -4.649000000     1.133000000     6.284000000
O     3.029000000    -1.452000000     0.580000000
H     3.600000000    -1.295000000    -0.172000000
H     2.145000000    -1.298000000     0.247000000
O    -3.301000000    -0.410000000    -6.732000000
H    -2.916000000    -1.005000000    -7.375000000
H    -2.607000000     0.222000000    -6.544000000
O     4.322000000     1.622000000    -5.244000000
H     4.903000000     1.228000000    -5.894000000
H     3.477000000     1.195000000    -5.388000000
O    -2.908000000     3.633000000     0.059000000
H    -2.415000000     4.429000000    -0.140000000
H    -2.965000000     3.619000000     1.015000000
O     1.045000000     3.712000000     6.255000000
H     0.370000000     3.144000000     5.884000000
H     1.566000000     3.133000000     6.811000000
O     1.645000000     0.765000000    -6.267000000
H     1.648000000     0.368000000    -7.137000000
H     1.525000000     1.701000000    -6.431000000
O     0.298000000     3.785000000    -3.692000000
H     0.598000000     3.622000000    -2.797000000
H    -0.100000000     4.654000000    -3.657000000
O     0.868000000     4.597000000    -1.052000000
H     0.149000000     4.971000000    -0.543000000
H     1.634000000     4.681000000    -0.484000000
O     3.513000000     3.227000000     3.841000000
H     4.366000000     2.808000000     3.953000000
H     2.881000000     2.516000000     3.945000000
O    -1.014000000     5.679000000     0.479000000
H    -1.039000000     5.577000000     1.431000000
H    -0.970000000     6.625000000     0.341000000
O    -4.528000000     0.092000000     3.297000000
H    -3.705000000     0.213000000     3.770000000
H    -4.269000000    -0.290000000     2.458000000
O     2.742000000     4.699000000     1.464000000
H     3.002000000     4.210000000     2.244000000
H     3.492000000     5.264000000     1.274000000
O     3.878000000    -2.429000000     3.336000000
H     3.023000000    -2.591000000     3.735000000
H     3.676000000    -2.107000000     2.458000000
O    -2.302000000    -3.617000000    -4.051000000
H    -3.009000000    -4.189000000    -4.350000000
H    -2.725000000    -3.011000000    -3.443000000
O    -5.419000000     1.921000000    -3.642000000
H    -5.170000000     1.017000000    -3.836000000
H    -4.682000000     2.270000000    -3.140000000
O     2.823000000     5.577000000     5.067000000
H     2.243000000     4.826000000     5.188000000
H     3.616000000     5.208000000     4.679000000
O     1.489000000     3.336000000    -6.794000000
H     0.698000000     3.557000000    -6.301000000
H     1.823000000     4.180000000    -7.099000000
O    -4.604000000    -2.523000000     0.320000000
H    -4.151000000    -2.622000000     1.157000000
H    -5.413000000    -2.060000000     0.538000000
O     2.869000000    -2.787000000    -3.231000000
H     3.414000000    -3.564000000    -3.355000000
H     2.009000000    -3.133000000    -2.994000000
O     0.350000000     4.085000000     3.141000000
H     0.854000000     3.278000000     3.247000000
H     1.010000000     4.761000000     2.988000000
O    -2.518000000     2.511000000    -7.709000000
H    -2.489000000     3.467000000    -7.676000000
H    -2.094000000     2.231000000    -6.898000000
O    -3.970000000    -0.814000000    -1.891000000
H    -4.172000000    -1.357000000    -1.129000000
H    -4.294000000     0.056000000    -1.658000000
O     5.496000000     0.723000000     1.473000000
H     4.677000000     0.228000000     1.489000000
H     5.525000000     1.165000000     2.322000000
O    -3.079000000    -4.058000000    -1.064000000
H    -3.593000000    -3.394000000    -0.605000000
H    -2.279000000    -3.603000000    -1.326000000
O    -1.312000000    -4.973000000     5.015000000
H    -1.010000000    -5.558000000     5.710000000
H    -0.653000000    -5.057000000     4.327000000
O     0.279000000    -3.927000000    -2.904000000
H    -0.441000000    -3.437000000    -3.301000000
H     0.055000000    -4.846000000    -3.054000000
O    -3.028000000    -5.846000000     1.672000000
H    -3.040000000    -4.973000000     1.279000000
H    -2.264000000    -5.838000000     2.250000000
O    -0.114000000    -4.526000000     1.848000000
H     0.133000000    -3.809000000     2.432000000
H     0.428000000    -4.398000000     1.069000000
