161
-3040.97330
C    -0.335000000    -1.372000000     0.713000000
H    -0.619000000    -2.358000000     1.072000000
C    -0.324000000    -1.132000000    -0.693000000
H    -0.483000000    -1.897000000    -1.448000000
C     0.106000000     0.105000000    -1.251000000
C     0.013000000     0.451000000    -2.700000000
H    -0.052000000    -0.422000000    -3.354000000
H    -0.935000000     0.958000000    -2.888000000
H     0.814000000     1.073000000    -3.105000000
C     0.370000000     1.148000000    -0.312000000
H     0.669000000     2.143000000    -0.634000000
C     0.315000000     0.975000000     1.068000000
H     0.546000000     1.837000000     1.690000000
C     0.027000000    -0.315000000     1.567000000
C    -0.116000000    -0.374000000     3.033000000
O     0.278000000     0.618000000     3.716000000
O    -0.279000000    -1.441000000     3.526000000
O     0.668000000     2.110000000     7.196000000
H     1.608000000     2.057000000     7.023000000
H     0.334000000     1.241000000     6.975000000
O     0.638000000    -3.814000000     7.279000000
H     0.126000000    -3.863000000     8.087000000
H     0.366000000    -4.582000000     6.777000000
O     1.636000000    -4.486000000    -0.191000000
H     0.976000000    -3.883000000     0.152000000
H     1.556000000    -4.412000000    -1.142000000
O    -3.260000000     3.348000000    -3.617000000
H    -2.666000000     3.377000000    -2.867000000
H    -3.163000000     2.461000000    -3.965000000
O    -5.219000000    -0.137000000     0.999000000
H    -4.345000000     0.105000000     0.692000000
H    -5.289000000    -1.072000000     0.808000000
O    -2.577000000    -5.053000000     4.910000000
H    -1.741000000    -5.419000000     5.199000000
H    -2.635000000    -4.208000000     5.356000000
O     5.121000000     3.068000000     0.536000000
H     5.213000000     3.368000000    -0.369000000
H     5.015000000     2.120000000     0.464000000
O     1.344000000    -3.002000000     4.618000000
H     0.809000000    -2.362000000     4.148000000
H     1.222000000    -2.785000000     5.542000000
O     3.100000000     2.662000000    -4.058000000
H     2.351000000     3.181000000    -3.763000000
H     2.851000000     2.359000000    -4.931000000
O     3.797000000     0.044000000    -3.694000000
H     3.660000000     0.987000000    -3.782000000
H     3.770000000    -0.115000000    -2.751000000
O    -2.965000000     0.783000000     0.061000000
H    -2.834000000     1.559000000     0.605000000
H    -2.087000000     0.418000000    -0.051000000
O    -2.718000000     1.073000000    -4.890000000
H    -2.116000000     1.305000000    -5.597000000
H    -2.917000000     0.148000000    -5.039000000
O    -5.528000000    -3.291000000     0.824000000
H    -4.930000000    -3.444000000     1.556000000
H    -5.283000000    -3.949000000     0.173000000
O    -3.675000000    -1.643000000    -5.108000000
H    -3.755000000    -1.761000000    -4.161000000
H    -3.467000000    -2.515000000    -5.442000000
O     1.961000000     1.069000000    -6.298000000
H     1.839000000     0.228000000    -5.858000000
H     2.152000000     0.838000000    -7.207000000
O    -1.917000000     1.662000000     5.905000000
H    -1.552000000     1.655000000     5.020000000
H    -2.857000000     1.533000000     5.778000000
O     0.397000000    -0.540000000     6.150000000
H    -0.523000000    -0.753000000     6.306000000
H     0.423000000    -0.240000000     5.241000000
O    -2.674000000    -1.588000000     4.392000000
H    -1.754000000    -1.601000000     4.126000000
H    -2.753000000    -0.808000000     4.941000000
O     4.404000000    -0.758000000    -1.182000000
H     4.283000000    -0.697000000    -0.235000000
H     4.603000000    -1.681000000    -1.339000000
O     1.044000000    -1.600000000    -5.538000000
H     0.852000000    -2.323000000    -4.941000000
H     0.453000000    -1.737000000    -6.278000000
O     3.364000000    -1.606000000     2.794000000
H     4.066000000    -2.214000000     3.026000000
H     2.576000000    -1.993000000     3.176000000
O    -1.930000000    -4.364000000    -6.056000000
H    -1.040000000    -4.073000000    -5.857000000
H    -1.862000000    -4.769000000    -6.921000000
O     0.728000000     5.222000000    -6.103000000
H     1.416000000     4.970000000    -6.718000000
H     0.349000000     4.392000000    -5.814000000
O     0.823000000     4.133000000    -2.170000000
H     0.722000000     4.910000000    -2.720000000
H     1.424000000     4.406000000    -1.478000000
O    -2.096000000    -1.077000000     7.670000000
H    -1.539000000    -0.953000000     8.438000000
H    -2.026000000    -2.010000000     7.470000000
O    -0.039000000     2.640000000    -5.233000000
H    -0.504000000     2.265000000    -4.485000000
H     0.462000000     1.910000000    -5.594000000
O    -2.116000000     3.048000000     1.701000000
H    -1.348000000     3.620000000     1.716000000
H    -2.650000000     3.343000000     2.439000000
O    -1.364000000     4.164000000     7.062000000
H    -1.446000000     3.305000000     6.649000000
H    -0.478000000     4.172000000     7.424000000
O    -1.702000000     3.491000000    -1.373000000
H    -1.729000000     3.485000000    -0.416000000
H    -0.805000000     3.748000000    -1.586000000
O     2.566000000     4.889000000    -0.077000000
H     1.779000000     4.530000000     0.332000000
H     3.280000000     4.350000000     0.264000000
O     2.456000000     2.037000000     3.839000000
H     2.637000000     1.987000000     4.778000000
H     1.871000000     1.299000000     3.669000000
O    -0.006000000     4.868000000     1.400000000
H     0.145000000     4.614000000     2.311000000
H     0.492000000     5.678000000     1.292000000
O     2.857000000     4.752000000     3.682000000
H     3.763000000     4.632000000     3.397000000
H     2.507000000     3.864000000     3.748000000
O     2.457000000    -6.063000000     1.912000000
H     3.399000000    -6.212000000     1.825000000
H     2.213000000    -5.598000000     1.112000000
O    -3.702000000    -4.122000000    -1.398000000
H    -3.389000000    -4.515000000    -2.213000000
H    -3.724000000    -3.183000000    -1.578000000
O     5.162000000     2.882000000    -2.347000000
H     5.779000000     2.223000000    -2.665000000
H     4.455000000     2.879000000    -2.992000000
O    -5.130000000     2.500000000    -1.357000000
H    -4.319000000     2.140000000    -0.999000000
H    -4.895000000     2.792000000    -2.237000000
O     3.275000000     2.162000000     6.624000000
H     4.050000000     2.721000000     6.572000000
H     3.549000000     1.424000000     7.169000000
O    -2.541000000     3.657000000    -6.977000000
H    -1.589000000     3.600000000    -6.892000000
H    -2.874000000     3.393000000    -6.119000000
O    -4.348000000    -3.599000000     3.226000000
H    -3.674000000    -4.279000000     3.222000000
H    -4.077000000    -2.998000000     3.920000000
O     0.688000000    -3.986000000    -4.578000000
H     1.189000000    -4.747000000    -4.869000000
H     0.600000000    -4.103000000    -3.633000000
O    -0.104000000     3.650000000     4.066000000
H     0.204000000     2.765000000     4.262000000
H    -0.785000000     3.816000000     4.719000000
O    -4.149000000    -1.441000000    -1.881000000
H    -3.820000000    -0.639000000    -1.476000000
H    -4.924000000    -1.162000000    -2.368000000
O     4.831000000     0.745000000     2.232000000
H     4.500000000    -0.087000000     2.570000000
H     4.214000000     1.400000000     2.561000000
O     4.044000000    -2.354000000    -5.408000000
H     4.600000000    -2.674000000    -4.698000000
H     3.364000000    -1.843000000    -4.968000000
O    -0.314000000    -4.280000000    -2.253000000
H    -1.068000000    -4.078000000    -1.699000000
H    -0.570000000    -5.071000000    -2.727000000
O    -2.109000000    -6.315000000     1.148000000
H    -2.411000000    -6.767000000     1.936000000
H    -1.608000000    -5.569000000     1.477000000
O    -0.301000000    -4.703000000     2.707000000
H     0.507000000    -5.114000000     2.401000000
H    -0.022000000    -4.127000000     3.419000000
