161
-3037.63842
C    -0.428000000    -1.384000000     0.388000000
H    -0.571000000    -2.455000000     0.506000000
C    -0.576000000    -0.868000000    -0.930000000
H    -0.924000000    -1.465000000    -1.769000000
C    -0.149000000     0.442000000    -1.130000000
C    -0.026000000     1.018000000    -2.485000000
H    -0.063000000     0.190000000    -3.196000000
H    -0.723000000     1.837000000    -2.674000000
H     0.977000000     1.425000000    -2.630000000
C     0.271000000     1.252000000    -0.061000000
H     0.629000000     2.271000000    -0.181000000
C     0.378000000     0.735000000     1.217000000
H     0.864000000     1.379000000     1.946000000
C    -0.013000000    -0.554000000     1.466000000
C     0.108000000    -1.137000000     2.849000000
O     0.736000000    -0.518000000     3.653000000
O    -0.498000000    -2.165000000     3.039000000
O     0.982000000     2.963000000     6.038000000
H     1.906000000     3.195000000     6.134000000
H     0.607000000     3.110000000     6.907000000
O    -1.099000000     5.780000000    -6.011000000
H    -0.809000000     4.879000000    -5.870000000
H    -1.217000000     5.847000000    -6.959000000
O    -3.335000000    -3.542000000     0.113000000
H    -3.302000000    -3.477000000     1.067000000
H    -4.141000000    -4.026000000    -0.067000000
O     0.930000000    -1.918000000     5.922000000
H     1.089000000    -1.337000000     5.178000000
H     1.567000000    -2.624000000     5.815000000
O     5.391000000     2.520000000     1.017000000
H     5.610000000     2.621000000     1.943000000
H     4.610000000     3.059000000     0.895000000
O    -4.987000000     0.243000000    -3.326000000
H    -4.414000000     0.095000000    -4.078000000
H    -4.459000000     0.766000000    -2.722000000
O     5.151000000     0.915000000    -3.934000000
H     4.337000000     0.814000000    -4.428000000
H     4.900000000     1.420000000    -3.161000000
O    -0.738000000    -6.015000000     1.635000000
H    -0.058000000    -5.355000000     1.502000000
H    -0.387000000    -6.585000000     2.319000000
O     2.846000000     0.921000000    -5.193000000
H     2.530000000     1.807000000    -5.012000000
H     2.250000000     0.587000000    -5.864000000
O     5.188000000    -0.936000000     3.409000000
H     4.768000000    -0.162000000     3.034000000
H     4.694000000    -1.674000000     3.051000000
O     3.123000000    -1.983000000    -4.607000000
H     3.529000000    -2.446000000    -5.340000000
H     2.879000000    -1.130000000    -4.968000000
O     4.087000000    -2.884000000     1.901000000
H     4.739000000    -3.257000000     1.308000000
H     4.085000000    -1.949000000     1.696000000
O    -3.323000000    -0.705000000     0.281000000
H    -2.697000000    -0.101000000    -0.118000000
H    -2.945000000    -1.572000000     0.139000000
O    -4.350000000     1.755000000     1.030000000
H    -3.921000000     1.867000000     1.879000000
H    -4.172000000     0.846000000     0.790000000
O     3.506000000    -2.874000000     6.215000000
H     4.023000000    -3.000000000     5.419000000
H     4.088000000    -3.146000000     6.924000000
O    -1.819000000    -1.743000000     6.639000000
H    -1.124000000    -2.063000000     6.063000000
H    -1.393000000    -1.080000000     7.182000000
O     4.798000000     4.546000000    -2.263000000
H     4.130000000     3.903000000    -2.499000000
H     4.357000000     5.391000000    -2.349000000
O    -0.555000000    -4.402000000     5.149000000
H    -1.473000000    -4.540000000     4.915000000
H    -0.246000000    -3.740000000     4.532000000
O     1.462000000     4.554000000    -2.329000000
H     1.610000000     4.968000000    -1.478000000
H     0.526000000     4.674000000    -2.494000000
O    -3.110000000    -2.757000000     2.736000000
H    -2.201000000    -2.467000000     2.813000000
H    -3.152000000    -3.556000000     3.261000000
O     1.369000000    -3.977000000     1.677000000
H     0.707000000    -3.327000000     1.913000000
H     2.204000000    -3.535000000     1.829000000
O     3.013000000    -1.327000000    -1.834000000
H     2.244000000    -1.891000000    -1.921000000
H     3.514000000    -1.479000000    -2.636000000
O    -0.154000000    -2.357000000    -5.138000000
H     0.629000000    -2.569000000    -4.631000000
H     0.121000000    -2.442000000    -6.051000000
O    -4.586000000    -2.342000000     6.366000000
H    -3.657000000    -2.111000000     6.369000000
H    -4.960000000    -1.838000000     7.088000000
O     0.687000000     0.510000000    -6.783000000
H     0.026000000    -0.107000000    -6.469000000
H     0.215000000     1.076000000    -7.394000000
O    -0.785000000     2.825000000    -5.568000000
H    -0.384000000     2.049000000    -5.177000000
H    -1.556000000     2.492000000    -6.027000000
O    -0.362000000     0.127000000     7.709000000
H     0.355000000    -0.070000000     7.106000000
H     0.068000000     0.302000000     8.545000000
O     2.732000000    -5.976000000     3.269000000
H     3.560000000    -5.794000000     2.826000000
H     2.097000000    -5.406000000     2.835000000
O     2.110000000     3.521000000    -4.826000000
H     2.051000000     3.957000000    -3.976000000
H     1.280000000     3.723000000    -5.258000000
O     1.526000000     3.784000000     3.363000000
H     1.520000000     4.225000000     4.212000000
H     0.697000000     4.037000000     2.956000000
O    -0.693000000     1.528000000     4.514000000
H     0.036000000     2.017000000     4.898000000
H    -0.279000000     0.781000000     4.082000000
O    -1.110000000     4.299000000     2.262000000
H    -1.625000000     4.907000000     1.732000000
H    -1.707000000     3.573000000     2.442000000
O    -4.665000000    -0.309000000     3.039000000
H    -4.462000000     0.127000000     3.866000000
H    -3.922000000    -0.894000000     2.888000000
O     3.016000000    -0.307000000     7.253000000
H     2.779000000    -1.227000000     7.135000000
H     3.949000000    -0.272000000     7.042000000
O     3.547000000     2.089000000    -1.281000000
H     3.358000000     2.398000000    -0.395000000
H     3.448000000     1.138000000    -1.229000000
O     2.734000000    -4.382000000    -0.789000000
H     2.941000000    -5.316000000    -0.812000000
H     2.314000000    -4.250000000     0.061000000
O    -2.616000000    -3.219000000    -4.274000000
H    -1.755000000    -3.097000000    -4.673000000
H    -3.118000000    -2.451000000    -4.546000000
O     3.084000000     4.073000000     1.016000000
H     2.506000000     4.161000000     1.774000000
H     3.249000000     4.973000000     0.734000000
O    -3.542000000    -0.877000000    -5.263000000
H    -4.173000000    -1.090000000    -5.951000000
H    -2.971000000    -0.218000000    -5.658000000
O    -3.295000000    -4.389000000     4.959000000
H    -3.796000000    -5.180000000     5.156000000
H    -3.638000000    -3.731000000     5.564000000
O     2.879000000     1.300000000     3.881000000
H     2.423000000     2.045000000     3.489000000
H     2.240000000     0.588000000     3.854000000
O     1.019000000    -3.628000000    -2.570000000
H     0.156000000    -3.947000000    -2.307000000
H     1.607000000    -3.925000000    -1.876000000
O    -3.568000000     1.866000000    -1.542000000
H    -3.496000000     2.810000000    -1.680000000
H    -3.800000000     1.777000000    -0.618000000
O    -3.058000000     2.335000000     3.418000000
H    -3.792000000     1.905000000     3.858000000
H    -2.281000000     1.892000000     3.759000000
O    -3.444000000     4.682000000    -1.363000000
H    -3.111000000     4.779000000    -0.471000000
H    -3.407000000     5.565000000    -1.730000000
O    -5.108000000     4.096000000    -3.772000000
H    -4.346000000     3.790000000    -3.279000000
H    -5.570000000     4.672000000    -3.164000000
O    -1.867000000    -4.430000000    -2.008000000
H    -2.380000000    -4.123000000    -1.261000000
H    -2.198000000    -3.924000000    -2.750000000
O     3.580000000    -0.482000000     0.708000000
H     3.969000000    -0.690000000    -0.142000000
H     2.643000000    -0.408000000     0.531000000
