161
-3056.30862
C    -0.956000000    -0.600000000     0.952000000
H    -1.480000000    -1.196000000     1.695000000
C    -0.447000000    -1.211000000    -0.223000000
H    -0.833000000    -2.203000000    -0.444000000
C     0.473000000    -0.531000000    -1.015000000
C     0.951000000    -1.240000000    -2.236000000
H     1.449000000    -2.128000000    -1.840000000
H     0.027000000    -1.379000000    -2.801000000
H     1.582000000    -0.609000000    -2.866000000
C     0.842000000     0.718000000    -0.702000000
H     1.533000000     1.234000000    -1.364000000
C     0.302000000     1.404000000     0.401000000
H     0.551000000     2.458000000     0.494000000
C    -0.552000000     0.744000000     1.293000000
C    -1.011000000     1.351000000     2.558000000
O    -0.500000000     2.382000000     2.921000000
O    -1.938000000     0.800000000     3.170000000
O    -4.056000000    -2.644000000     0.741000000
H    -3.718000000    -2.224000000     1.532000000
H    -4.826000000    -2.126000000     0.506000000
O     1.131000000     3.217000000     5.023000000
H     0.402000000     2.853000000     4.522000000
H     1.866000000     3.219000000     4.410000000
O    -2.407000000     0.979000000    -1.592000000
H    -2.424000000     0.773000000    -2.527000000
H    -1.742000000     0.394000000    -1.229000000
O    -1.556000000     1.528000000     7.093000000
H    -0.693000000     1.128000000     6.990000000
H    -1.588000000     2.206000000     6.418000000
O    -4.304000000     0.887000000     0.200000000
H    -3.633000000     0.707000000    -0.459000000
H    -4.162000000     1.802000000     0.442000000
O     3.731000000     3.311000000     3.588000000
H     4.334000000     3.685000000     2.945000000
H     4.107000000     2.458000000     3.802000000
O    -2.384000000     3.312000000     4.981000000
H    -3.218000000     2.999000000     4.630000000
H    -1.738000000     3.067000000     4.317000000
O     4.871000000    -3.948000000    -0.099000000
H     4.636000000    -3.680000000    -0.987000000
H     5.814000000    -3.796000000    -0.045000000
O     1.790000000     2.480000000    -4.609000000
H     2.480000000     2.982000000    -5.042000000
H     1.447000000     1.905000000    -5.293000000
O    -2.039000000    -4.776000000     0.193000000
H    -2.889000000    -4.728000000     0.631000000
H    -1.419000000    -4.428000000     0.833000000
O     1.847000000    -7.421000000    -2.636000000
H     1.477000000    -6.550000000    -2.492000000
H     1.535000000    -7.939000000    -1.895000000
O    -4.566000000    -1.931000000    -2.403000000
H    -5.148000000    -2.192000000    -3.116000000
H    -3.960000000    -2.666000000    -2.306000000
O     3.792000000    -2.978000000    -2.507000000
H     4.278000000    -2.332000000    -3.020000000
H     3.043000000    -3.206000000    -3.057000000
O    -3.840000000    -1.123000000     3.018000000
H    -4.603000000    -0.734000000     3.445000000
H    -3.194000000    -0.417000000     2.993000000
O    -0.124000000    -4.998000000    -3.892000000
H    -0.091000000    -5.649000000    -4.594000000
H     0.697000000    -4.513000000    -3.978000000
O     3.145000000    -0.540000000     1.322000000
H     2.543000000     0.131000000     1.000000000
H     2.848000000    -0.720000000     2.214000000
O     4.862000000    -1.189000000    -4.265000000
H     5.706000000    -0.870000000    -4.584000000
H     4.355000000    -1.361000000    -5.058000000
O    -3.272000000    -0.797000000     6.236000000
H    -3.135000000     0.092000000     6.562000000
H    -2.436000000    -1.037000000     5.836000000
O    -3.805000000    -3.648000000     3.947000000
H    -3.312000000    -3.551000000     4.762000000
H    -3.907000000    -2.754000000     3.621000000
O    -3.019000000     5.922000000    -0.885000000
H    -2.523000000     5.194000000    -1.260000000
H    -2.564000000     6.125000000    -0.067000000
O    -6.439000000     0.245000000     1.611000000
H    -5.712000000     0.422000000     1.014000000
H    -7.052000000     0.964000000     1.461000000
O     3.032000000    -1.576000000    -6.465000000
H     2.243000000    -2.117000000    -6.482000000
H     3.285000000    -1.491000000    -7.384000000
O    -4.169000000     3.715000000     1.326000000
H    -3.432000000     4.293000000     1.523000000
H    -4.807000000     4.280000000     0.889000000
O     1.095000000     7.741000000     0.282000000
H     0.634000000     6.907000000     0.187000000
H     1.051000000     7.934000000     1.218000000
O    -2.378000000    -4.006000000    -2.376000000
H    -1.574000000    -4.380000000    -2.736000000
H    -2.239000000    -4.003000000    -1.429000000
O     2.732000000     4.016000000     0.083000000
H     3.021000000     3.710000000    -0.776000000
H     3.487000000     3.876000000     0.654000000
O     0.638000000    -2.546000000    -6.490000000
H     0.457000000    -3.153000000    -7.208000000
H     0.231000000    -2.952000000    -5.725000000
O     3.188000000     3.085000000    -2.283000000
H     3.960000000     3.403000000    -2.750000000
H     2.568000000     2.852000000    -2.974000000
O    -2.400000000    -2.554000000    -5.190000000
H    -2.554000000    -3.233000000    -5.847000000
H    -2.982000000    -2.785000000    -4.466000000
O     4.959000000     0.696000000    -1.805000000
H     4.405000000     1.473000000    -1.869000000
H     4.649000000     0.122000000    -2.505000000
O    -1.613000000     4.680000000     2.032000000
H    -1.101000000     3.903000000     2.252000000
H    -1.115000000     5.106000000     1.335000000
O    -1.869000000     6.205000000     4.314000000
H    -1.943000000     5.792000000     3.454000000
H    -2.221000000     5.554000000     4.923000000
O    -1.612000000     3.757000000    -2.113000000
H    -1.639000000     3.709000000    -3.069000000
H    -1.835000000     2.873000000    -1.822000000
O     1.650000000     0.602000000     6.957000000
H     1.920000000     1.517000000     7.032000000
H     1.730000000     0.405000000     6.023000000
O    -0.060000000     5.037000000    -0.338000000
H    -0.368000000     4.583000000    -1.122000000
H     0.711000000     4.542000000    -0.061000000
O     1.164000000    -5.462000000    -0.914000000
H     0.217000000    -5.495000000    -0.773000000
H     1.526000000    -5.249000000    -0.054000000
O    -3.040000000    -0.075000000    -3.991000000
H    -3.747000000    -0.647000000    -3.689000000
H    -2.452000000    -0.655000000    -4.474000000
O    -4.253000000     1.944000000     3.803000000
H    -4.503000000     2.340000000     2.968000000
H    -3.406000000     1.533000000     3.630000000
O    -0.162000000    -3.621000000     4.734000000
H    -0.811000000    -3.425000000     5.410000000
H     0.604000000    -3.102000000     4.980000000
O     0.558000000     4.450000000     7.541000000
H     0.974000000     3.589000000     7.579000000
H     0.472000000     4.634000000     6.606000000
O     2.454000000    -4.632000000    -4.872000000
H     2.419000000    -5.503000000    -5.267000000
H     3.100000000    -4.158000000    -5.397000000
O     0.003000000    -4.637000000     2.165000000
H    -0.084000000    -4.228000000     3.026000000
H     0.873000000    -4.375000000     1.862000000
O     2.391000000    -3.725000000     1.149000000
H     3.171000000    -3.797000000     0.599000000
H     2.062000000    -2.842000000     0.983000000
O     2.408000000    -0.267000000     4.540000000
H     2.447000000    -1.221000000     4.601000000
H     3.318000000     0.002000000     4.417000000
O    -0.923000000    -0.747000000     4.947000000
H    -1.339000000    -0.104000000     4.372000000
H     0.002000000    -0.725000000     4.700000000
O    -0.275000000     0.288000000    -7.028000000
H     0.142000000    -0.326000000    -6.423000000
H    -0.782000000    -0.267000000    -7.620000000
O     4.888000000    -5.746000000    -2.870000000
H     4.735000000    -5.095000000    -2.185000000
H     4.068000000    -5.770000000    -3.364000000
O    -4.531000000    -5.095000000     1.510000000
H    -4.436000000    -4.186000000     1.224000000
H    -4.510000000    -5.049000000     2.466000000
