161
-3033.65383
C    -0.750000000    -0.980000000     0.779000000
H    -1.394000000    -1.716000000     1.254000000
C    -0.611000000    -0.907000000    -0.594000000
H    -1.116000000    -1.728000000    -1.096000000
C     0.180000000     0.072000000    -1.262000000
C     0.172000000     0.051000000    -2.833000000
H    -0.733000000     0.606000000    -3.091000000
H     1.081000000     0.503000000    -3.236000000
H     0.169000000    -0.941000000    -3.289000000
C     0.881000000     0.974000000    -0.472000000
H     1.428000000     1.823000000    -0.874000000
C     0.668000000     0.959000000     1.010000000
H     1.155000000     1.687000000     1.654000000
C    -0.198000000     0.023000000     1.594000000
C    -0.295000000    -0.098000000     3.101000000
O     0.344000000     0.637000000     3.819000000
O    -0.981000000    -0.969000000     3.537000000
O    -3.242000000     2.775000000    -4.751000000
H    -3.437000000     3.618000000    -5.161000000
H    -3.941000000     2.194000000    -5.053000000
O    -0.689000000    -4.437000000     0.082000000
H    -1.181000000    -4.666000000     0.870000000
H    -1.174000000    -4.851000000    -0.632000000
O    -2.835000000     0.361000000     5.492000000
H    -3.040000000     1.289000000     5.598000000
H    -1.934000000     0.350000000     5.167000000
O     0.920000000    -1.388000000     5.702000000
H     0.256000000    -0.914000000     5.201000000
H     1.253000000    -2.048000000     5.094000000
O     3.307000000     3.147000000     1.088000000
H     3.637000000     2.259000000     0.949000000
H     4.045000000     3.618000000     1.476000000
O    -5.375000000    -4.744000000     0.736000000
H    -5.000000000    -3.865000000     0.684000000
H    -5.025000000    -5.106000000     1.550000000
O     1.857000000     1.284000000     5.907000000
H     1.852000000     0.521000000     6.485000000
H     1.278000000     1.041000000     5.185000000
O    -3.805000000    -1.007000000     3.247000000
H    -4.248000000    -1.038000000     4.094000000
H    -2.892000000    -1.214000000     3.447000000
O     3.917000000    -1.430000000    -3.834000000
H     3.210000000    -1.812000000    -4.354000000
H     4.097000000    -2.083000000    -3.158000000
O    -2.260000000    -5.236000000     2.323000000
H    -1.702000000    -4.661000000     2.846000000
H    -3.144000000    -5.080000000     2.655000000
O     2.527000000     1.111000000    -6.061000000
H     1.929000000     1.858000000    -6.042000000
H     1.955000000     0.345000000    -6.016000000
O     1.340000000    -2.669000000    -4.972000000
H     1.404000000    -2.460000000    -5.904000000
H     0.647000000    -2.097000000    -4.644000000
O     2.904000000    -3.911000000    -2.461000000
H     2.065000000    -3.845000000    -2.916000000
H     2.669000000    -4.047000000    -1.543000000
O    -4.845000000    -2.192000000     0.823000000
H    -4.398000000    -1.931000000     1.628000000
H    -5.179000000    -1.373000000     0.458000000
O    -5.099000000     1.569000000     2.351000000
H    -4.542000000     2.186000000     2.826000000
H    -4.896000000     0.717000000     2.736000000
O     1.957000000    -2.814000000     3.819000000
H     2.098000000    -2.786000000     2.872000000
H     2.785000000    -2.512000000     4.193000000
O     5.153000000    -0.021000000    -6.003000000
H     4.945000000    -0.399000000    -5.149000000
H     4.462000000     0.623000000    -6.156000000
O    -0.873000000    -3.555000000     4.129000000
H     0.078000000    -3.658000000     4.101000000
H    -1.012000000    -2.608000000     4.127000000
O     0.484000000     3.155000000    -6.477000000
H     0.715000000     3.639000000    -7.270000000
H     0.362000000     3.832000000    -5.811000000
O     2.000000000    -4.217000000    -0.053000000
H     2.218000000    -3.460000000     0.491000000
H     1.043000000    -4.247000000    -0.048000000
O     0.209000000     5.012000000    -4.475000000
H    -0.526000000     4.528000000    -4.099000000
H     0.684000000     5.352000000    -3.718000000
O     1.570000000     5.488000000    -1.892000000
H     0.690000000     5.863000000    -1.872000000
H     2.124000000     6.155000000    -1.487000000
O    -0.018000000    -4.666000000    -3.447000000
H     0.496000000    -4.612000000    -4.253000000
H    -0.547000000    -3.868000000    -3.447000000
O     5.125000000     0.510000000    -2.498000000
H     4.335000000     0.064000000    -2.804000000
H     4.895000000     0.831000000    -1.626000000
O    -4.605000000    -2.705000000    -2.291000000
H    -5.252000000    -2.075000000    -2.608000000
H    -4.268000000    -2.317000000    -1.484000000
O    -1.772000000     1.311000000    -6.621000000
H    -2.063000000     1.434000000    -5.717000000
H    -1.065000000     1.947000000    -6.733000000
O    -1.083000000     2.817000000     4.155000000
H    -0.570000000     2.034000000     3.955000000
H    -0.430000000     3.480000000     4.382000000
O     4.002000000     2.661000000     5.343000000
H     3.830000000     3.514000000     4.945000000
H     3.155000000     2.214000000     5.328000000
O    -1.362000000     5.624000000     1.077000000
H    -0.480000000     5.311000000     1.274000000
H    -1.908000000     4.839000000     1.110000000
O    -3.548000000     3.804000000     3.632000000
H    -3.487000000     4.749000000     3.772000000
H    -2.699000000     3.465000000     3.915000000
O    -2.652000000     3.179000000     1.021000000
H    -2.530000000     2.303000000     0.655000000
H    -3.088000000     3.030000000     1.860000000
O     0.749000000    -1.422000000     8.388000000
H     0.920000000    -1.624000000     7.468000000
H     0.041000000    -0.780000000     8.365000000
O     5.343000000     2.768000000    -4.370000000
H     4.772000000     3.391000000    -3.922000000
H     4.870000000     1.936000000    -4.328000000
O     2.564000000    -1.687000000     0.826000000
H     1.848000000    -1.423000000     0.248000000
H     2.745000000    -0.909000000     1.354000000
O    -0.152000000    -1.008000000    -6.387000000
H    -0.500000000    -0.117000000    -6.392000000
H    -0.889000000    -1.555000000    -6.659000000
O    -1.860000000    -2.835000000    -4.101000000
H    -2.065000000    -2.984000000    -5.024000000
H    -2.421000000    -2.104000000    -3.845000000
O     3.736000000     4.739000000    -3.374000000
H     4.151000000     5.600000000    -3.429000000
H     3.099000000     4.825000000    -2.665000000
O     4.458000000     0.682000000     0.721000000
H     5.156000000     0.041000000     0.854000000
H     3.945000000     0.648000000     1.529000000
O     1.492000000     5.076000000     1.350000000
H     1.949000000     5.695000000     0.780000000
H     1.991000000     4.263000000     1.270000000
O     0.503000000     4.984000000     3.876000000
H    -0.179000000     5.616000000     3.650000000
H     1.051000000     4.933000000     3.093000000
O     3.184000000     0.417000000     3.006000000
H     3.787000000     0.638000000     3.715000000
H     2.387000000     0.129000000     3.451000000
O    -1.978000000    -0.081000000     8.310000000
H    -2.438000000     0.042000000     7.479000000
H    -1.531000000     0.752000000     8.461000000
O    -3.771000000    -2.168000000     6.170000000
H    -3.273000000    -1.390000000     5.922000000
H    -4.428000000    -1.846000000     6.787000000
O    -3.585000000     0.971000000    -2.359000000
H    -3.295000000     1.740000000    -2.850000000
H    -3.382000000     0.231000000    -2.930000000
O     1.283000000     4.120000000     7.364000000
H     1.949000000     4.037000000     8.047000000
H     1.201000000     3.239000000     7.001000000
O    -3.649000000    -0.589000000    -4.717000000
H    -4.556000000    -0.810000000    -4.506000000
H    -3.677000000    -0.313000000    -5.633000000
O    -2.339000000    -5.918000000    -4.132000000
H    -3.274000000    -5.740000000    -4.234000000
H    -1.963000000    -5.079000000    -3.866000000
O    -0.883000000    -4.887000000     6.764000000
H    -0.129000000    -5.443000000     6.961000000
H    -0.641000000    -4.434000000     5.956000000
