161
-3051.20843
C    -1.134000000    -0.618000000     0.719000000
H    -1.992000000    -1.153000000     1.118000000
C    -0.533000000    -1.118000000    -0.433000000
H    -0.865000000    -2.052000000    -0.878000000
C     0.590000000    -0.478000000    -1.003000000
C     1.171000000    -0.889000000    -2.309000000
H     1.649000000    -1.859000000    -2.160000000
H     0.346000000    -1.089000000    -2.996000000
H     1.817000000    -0.092000000    -2.685000000
C     0.998000000     0.687000000    -0.434000000
H     1.839000000     1.221000000    -0.867000000
C     0.376000000     1.124000000     0.709000000
H     0.798000000     2.024000000     1.149000000
C    -0.734000000     0.554000000     1.317000000
C    -1.342000000     1.103000000     2.552000000
O    -1.172000000     2.307000000     2.815000000
O    -1.806000000     0.330000000     3.387000000
O    -4.117000000    -2.594000000     1.224000000
H    -4.096000000    -1.695000000     0.897000000
H    -3.582000000    -2.573000000     2.018000000
O    -0.592000000     3.977000000     6.885000000
H    -1.132000000     3.189000000     6.823000000
H    -0.047000000     3.957000000     6.098000000
O    -3.161000000     0.443000000    -1.827000000
H    -3.179000000     0.044000000    -0.957000000
H    -3.260000000    -0.293000000    -2.431000000
O     0.769000000    -1.233000000     3.916000000
H    -0.159000000    -1.426000000     3.781000000
H     0.801000000    -0.286000000     4.046000000
O     5.419000000     4.276000000    -1.557000000
H     4.906000000     4.215000000    -2.363000000
H     5.279000000     5.172000000    -1.251000000
O    -4.654000000    -0.120000000     0.510000000
H    -5.295000000     0.407000000     0.033000000
H    -4.725000000     0.179000000     1.416000000
O     0.718000000     2.860000000     4.570000000
H     1.261000000     3.254000000     3.888000000
H    -0.082000000     2.595000000     4.117000000
O    -1.763000000     1.522000000     6.000000000
H    -2.671000000     1.676000000     6.263000000
H    -1.816000000     1.313000000     5.068000000
O     1.522000000    -4.257000000    -3.204000000
H     1.664000000    -3.812000000    -4.039000000
H     2.389000000    -4.575000000    -2.952000000
O    -3.135000000     1.823000000    -4.152000000
H    -3.008000000     1.644000000    -3.221000000
H    -4.048000000     1.589000000    -4.319000000
O     2.085000000     1.777000000    -5.888000000
H     2.530000000     1.728000000    -6.734000000
H     1.563000000     0.976000000    -5.844000000
O    -6.273000000    -2.384000000     4.026000000
H    -5.666000000    -1.725000000     3.689000000
H    -7.028000000    -1.881000000     4.332000000
O     4.922000000    -2.794000000    -5.980000000
H     4.990000000    -3.711000000    -6.245000000
H     4.818000000    -2.827000000    -5.029000000
O    -3.428000000    -2.285000000    -2.677000000
H    -3.664000000    -2.351000000    -3.602000000
H    -2.612000000    -2.781000000    -2.602000000
O     4.533000000    -2.729000000    -3.331000000
H     4.446000000    -3.557000000    -2.859000000
H     4.092000000    -2.087000000    -2.774000000
O    -4.594000000     0.174000000     3.349000000
H    -4.917000000     0.940000000     3.824000000
H    -3.641000000     0.251000000     3.391000000
O     2.164000000    -2.123000000     1.268000000
H     1.411000000    -1.584000000     1.026000000
H     2.299000000    -1.941000000     2.198000000
O    -0.313000000    -0.365000000     7.387000000
H    -0.363000000     0.398000000     6.811000000
H    -1.154000000    -0.807000000     7.272000000
O    -2.103000000    -2.508000000     3.433000000
H    -2.155000000    -3.014000000     4.244000000
H    -2.070000000    -1.596000000     3.722000000
O    -3.457000000     4.868000000     0.228000000
H    -4.311000000     4.906000000    -0.203000000
H    -2.878000000     4.471000000    -0.423000000
O    -7.060000000    -2.168000000     1.085000000
H    -6.766000000    -2.016000000     0.187000000
H    -6.272000000    -2.446000000     1.552000000
O     4.473000000    -5.300000000    -2.617000000
H     4.245000000    -5.988000000    -1.992000000
H     4.332000000    -5.700000000    -3.476000000
O     2.387000000    -4.550000000     0.285000000
H     2.243000000    -4.442000000    -0.655000000
H     2.322000000    -3.664000000     0.640000000
O    -3.603000000     3.044000000     2.367000000
H    -2.706000000     2.747000000     2.523000000
H    -3.539000000     3.604000000     1.594000000
O     1.490000000     3.901000000    -0.251000000
H     0.570000000     4.140000000    -0.367000000
H     1.972000000     4.542000000    -0.774000000
O     4.221000000     0.865000000     2.231000000
H     4.351000000     1.606000000     2.822000000
H     4.030000000     1.265000000     1.383000000
O     4.867000000     1.925000000    -3.675000000
H     4.123000000     2.485000000    -3.898000000
H     4.941000000     1.321000000    -4.414000000
O    -0.795000000     0.448000000    -5.026000000
H    -1.729000000     0.525000000    -4.831000000
H    -0.358000000     0.806000000    -4.253000000
O     5.700000000    -0.309000000    -2.277000000
H     5.235000000     0.527000000    -2.305000000
H     5.864000000    -0.523000000    -3.196000000
O    -1.078000000     5.195000000     3.332000000
H    -0.850000000     4.295000000     3.101000000
H    -0.325000000     5.513000000     3.831000000
O    -2.887000000     6.123000000     5.343000000
H    -2.320000000     5.688000000     4.707000000
H    -3.051000000     6.987000000     4.967000000
O     0.103000000     6.212000000     0.234000000
H     0.840000000     6.362000000     0.826000000
H    -0.570000000     5.813000000     0.785000000
O    -6.038000000    -1.847000000    -1.597000000
H    -5.111000000    -2.003000000    -1.776000000
H    -6.353000000    -1.370000000    -2.365000000
O    -2.623000000     6.931000000     1.649000000
H    -2.861000000     6.176000000     1.111000000
H    -1.957000000     6.597000000     2.250000000
O    -1.508000000     3.826000000    -1.793000000
H    -1.327000000     2.887000000    -1.765000000
H    -2.077000000     3.938000000    -2.555000000
O     3.828000000     2.516000000    -0.078000000
H     4.511000000     3.020000000    -0.521000000
H     3.023000000     2.743000000    -0.545000000
O     3.030000000     4.109000000    -4.277000000
H     2.523000000     3.579000000    -4.891000000
H     3.351000000     4.842000000    -4.801000000
O     0.590000000    -0.714000000    -6.955000000
H    -0.029000000    -0.697000000    -7.684000000
H     0.088000000    -0.391000000    -6.207000000
O     3.132000000     4.345000000     2.256000000
H     2.655000000     4.287000000     1.428000000
H     4.042000000     4.164000000     2.021000000
O     3.604000000    -0.105000000     4.791000000
H     3.598000000    -1.055000000     4.912000000
H     3.891000000     0.019000000     3.886000000
O    -6.106000000     2.781000000     3.826000000
H    -6.270000000     3.227000000     4.657000000
H    -5.163000000     2.871000000     3.688000000
O    -1.360000000    -4.557000000     1.749000000
H    -0.465000000    -4.797000000     1.986000000
H    -1.546000000    -3.778000000     2.273000000
O     2.289000000    -3.148000000    -6.288000000
H     3.214000000    -2.935000000    -6.409000000
H     1.840000000    -2.304000000    -6.328000000
O    -2.585000000    -5.140000000    -0.757000000
H    -1.991000000    -4.827000000    -0.074000000
H    -2.303000000    -4.680000000    -1.548000000
O    -1.261000000    -4.147000000    -2.861000000
H    -1.693000000    -4.651000000    -3.550000000
H    -0.334000000    -4.372000000    -2.945000000
O     2.162000000     1.470000000     6.537000000
H     1.751000000     1.752000000     5.720000000
H     2.825000000     0.835000000     6.264000000
O     0.859000000    -2.729000000     6.308000000
H     0.848000000    -1.866000000     6.723000000
H     0.881000000    -2.543000000     5.369000000
O    -5.233000000    -4.759000000     0.023000000
H    -5.184000000    -3.860000000     0.350000000
H    -4.349000000    -4.948000000    -0.292000000
