161
-3058.04886
C    -0.952000000    -0.136000000     1.099000000
H    -1.783000000    -0.373000000     1.758000000
C    -1.119000000    -0.717000000    -0.167000000
H    -1.952000000    -1.410000000    -0.261000000
C    -0.100000000    -0.571000000    -1.074000000
C    -0.079000000    -1.543000000    -2.192000000
H    -0.691000000    -1.122000000    -2.993000000
H     0.966000000    -1.551000000    -2.506000000
H    -0.456000000    -2.529000000    -1.912000000
C     0.926000000     0.363000000    -0.902000000
H     1.763000000     0.525000000    -1.577000000
C     1.013000000     0.997000000     0.306000000
H     1.756000000     1.773000000     0.471000000
C     0.068000000     0.794000000     1.302000000
C     0.232000000     1.630000000     2.532000000
O     0.294000000     2.830000000     2.527000000
O     0.117000000     1.047000000     3.588000000
O     4.585000000    -0.906000000     2.114000000
H     3.940000000    -1.262000000     1.503000000
H     5.024000000    -0.212000000     1.622000000
O    -0.459000000    -2.020000000     5.263000000
H     0.355000000    -1.516000000     5.295000000
H    -0.346000000    -2.699000000     5.927000000
O    -6.000000000    -3.061000000     3.251000000
H    -5.558000000    -2.471000000     2.641000000
H    -6.830000000    -2.627000000     3.446000000
O     2.890000000     3.268000000     2.650000000
H     2.709000000     3.889000000     1.944000000
H     2.031000000     2.918000000     2.887000000
O    -1.958000000     3.562000000    -3.563000000
H    -1.821000000     2.816000000    -4.147000000
H    -2.076000000     3.170000000    -2.698000000
O     1.669000000    -0.638000000     4.604000000
H     2.369000000    -0.903000000     4.007000000
H     1.172000000     0.016000000     4.113000000
O     2.633000000     4.815000000     0.291000000
H     2.290000000     4.287000000    -0.430000000
H     3.556000000     4.944000000     0.075000000
O    -2.243000000     0.822000000     4.564000000
H    -2.127000000    -0.104000000     4.351000000
H    -1.435000000     1.239000000     4.267000000
O     4.663000000     0.879000000    -0.228000000
H     4.550000000     1.440000000    -0.996000000
H     4.681000000     1.486000000     0.512000000
O    -5.450000000     0.785000000     1.078000000
H    -6.276000000     0.480000000     0.703000000
H    -5.039000000    -0.005000000     1.428000000
O     0.122000000     2.495000000     6.154000000
H    -0.616000000     3.087000000     6.297000000
H     0.067000000     2.264000000     5.227000000
O    -3.512000000     0.652000000    -2.889000000
H    -3.904000000     1.200000000    -3.570000000
H    -3.014000000     1.264000000    -2.348000000
O     0.836000000     1.680000000    -4.168000000
H     0.418000000     2.235000000    -4.826000000
H     0.665000000     0.786000000    -4.466000000
O    -1.577000000     6.051000000     4.561000000
H    -1.197000000     6.674000000     5.182000000
H    -1.719000000     5.257000000     5.076000000
O    -5.063000000     1.693000000     3.977000000
H    -4.117000000     1.556000000     3.931000000
H    -5.332000000     1.807000000     3.065000000
O     0.078000000    -0.679000000    -5.508000000
H    -0.564000000    -1.331000000    -5.224000000
H     0.284000000    -0.924000000    -6.410000000
O    -3.683000000     5.382000000     0.913000000
H    -4.262000000     4.707000000     0.559000000
H    -2.870000000     4.919000000     1.113000000
O     2.237000000    -5.913000000    -2.148000000
H     2.506000000    -5.001000000    -2.035000000
H     2.356000000    -6.084000000    -3.083000000
O    -2.126000000     2.220000000    -1.095000000
H    -1.593000000     3.013000000    -1.040000000
H    -1.597000000     1.546000000    -0.668000000
O    -0.187000000     0.496000000     8.106000000
H    -1.045000000     0.241000000     7.765000000
H     0.210000000     1.003000000     7.397000000
O     3.812000000    -3.614000000    -1.440000000
H     4.548000000    -3.003000000    -1.416000000
H     3.260000000    -3.353000000    -0.703000000
O    -2.015000000    -2.177000000    -4.860000000
H    -2.697000000    -2.199000000    -5.532000000
H    -2.492000000    -2.072000000    -4.037000000
O     0.651000000    -3.018000000     2.030000000
H    -0.033000000    -2.401000000     2.289000000
H     0.685000000    -3.653000000     2.745000000
O    -4.364000000    -1.862000000     1.540000000
H    -3.705000000    -1.854000000     2.234000000
H    -4.027000000    -2.486000000     0.897000000
O    -4.876000000     3.104000000    -0.001000000
H    -4.091000000     3.014000000    -0.542000000
H    -5.103000000     2.207000000     0.243000000
O     2.900000000    -1.373000000    -5.297000000
H     2.237000000    -0.683000000    -5.324000000
H     2.398000000    -2.184000000    -5.213000000
O    -1.081000000     4.650000000    -0.752000000
H    -1.528000000     5.451000000    -1.025000000
H    -0.957000000     4.754000000     0.192000000
O     4.138000000     5.543000000     4.107000000
H     3.832000000     4.755000000     3.659000000
H     5.079000000     5.567000000     3.936000000
O    -1.796000000    -5.637000000     1.481000000
H    -0.922000000    -5.262000000     1.375000000
H    -1.806000000    -5.972000000     2.378000000
O     5.089000000    -0.474000000    -3.993000000
H     4.470000000    -1.011000000    -4.488000000
H     4.652000000     0.373000000    -3.903000000
O    -3.811000000    -2.024000000    -2.270000000
H    -3.689000000    -1.086000000    -2.411000000
H    -4.236000000    -2.084000000    -1.414000000
O     3.970000000     2.003000000    -3.060000000
H     4.431000000     2.639000000    -2.512000000
H     4.112000000     2.310000000    -3.955000000
O     5.215000000    -3.320000000    -4.063000000
H     4.613000000    -3.445000000    -3.329000000
H     6.073000000    -3.558000000    -3.712000000
O    -1.594000000     1.495000000    -5.657000000
H    -2.496000000     1.346000000    -5.943000000
H    -1.232000000     0.617000000    -5.537000000
O    -1.000000000     5.013000000     2.174000000
H    -0.602000000     4.158000000     2.337000000
H    -1.186000000     5.361000000     3.046000000
O     1.343000000     3.530000000    -2.061000000
H     0.419000000     3.758000000    -1.965000000
H     1.340000000     2.737000000    -2.596000000
O     5.831000000    -1.481000000    -1.625000000
H     5.516000000    -1.040000000    -2.414000000
H     5.609000000    -0.883000000    -0.911000000
O     0.637000000    -5.134000000     0.061000000
H     1.278000000    -5.283000000    -0.634000000
H     0.599000000    -4.182000000     0.152000000
O    -0.410000000    -4.549000000    -3.706000000
H    -1.039000000    -5.175000000    -3.348000000
H    -0.891000000    -3.722000000    -3.748000000
O     5.542000000     2.147000000     2.126000000
H     6.303000000     2.376000000     2.659000000
H     4.792000000     2.456000000     2.635000000
O     1.258000000     6.809000000     1.688000000
H     1.837000000     6.130000000     1.341000000
H     0.394000000     6.397000000     1.711000000
O    -2.565000000    -0.257000000     7.281000000
H    -2.538000000     0.266000000     6.480000000
H    -3.471000000    -0.188000000     7.582000000
O    -3.245000000    -3.825000000    -0.010000000
H    -2.780000000    -4.497000000     0.489000000
H    -2.710000000    -3.695000000    -0.793000000
O     2.468000000     6.010000000    -2.599000000
H     2.002000000     5.178000000    -2.521000000
H     3.080000000     5.874000000    -3.322000000
O    -2.702000000    -1.843000000     3.787000000
H    -3.195000000    -2.589000000     4.130000000
H    -1.891000000    -1.838000000     4.295000000
O     2.588000000    -2.004000000     0.546000000
H     2.264000000    -1.164000000     0.223000000
H     1.903000000    -2.313000000     1.139000000
O     3.430000000    -0.221000000     6.769000000
H     3.870000000     0.629000000     6.794000000
H     2.726000000    -0.108000000     6.130000000
O     1.687000000    -3.819000000    -5.311000000
H     0.925000000    -3.701000000    -4.743000000
H     1.608000000    -4.716000000    -5.634000000
