161
-3068.47657
C     1.092000000    -0.641000000     0.594000000
H     1.827000000    -1.282000000     1.074000000
C     0.486000000    -1.074000000    -0.515000000
H     0.818000000    -2.039000000    -0.890000000
C    -0.631000000    -0.362000000    -1.036000000
C    -1.425000000    -0.898000000    -2.154000000
H    -0.870000000    -1.451000000    -2.915000000
H    -2.145000000    -1.638000000    -1.799000000
H    -2.019000000    -0.119000000    -2.636000000
C    -1.010000000     0.861000000    -0.424000000
H    -1.849000000     1.433000000    -0.812000000
C    -0.214000000     1.313000000     0.637000000
H    -0.414000000     2.301000000     1.042000000
C     0.837000000     0.586000000     1.242000000
C     1.631000000     0.926000000     2.501000000
O     1.300000000     1.857000000     3.241000000
O     2.589000000     0.223000000     2.843000000
O     1.341000000    -1.232000000    -4.973000000
H     0.699000000    -1.629000000    -4.384000000
H     2.000000000    -0.855000000    -4.390000000
O     0.901000000    -2.151000000     3.787000000
H     1.177000000    -1.236000000     3.726000000
H     1.690000000    -2.653000000     3.582000000
O    -4.438000000    -2.540000000     0.642000000
H    -4.441000000    -3.317000000     1.200000000
H    -4.573000000    -1.810000000     1.246000000
O     2.486000000     3.765000000     1.558000000
H     3.376000000     3.425000000     1.644000000
H     2.020000000     3.413000000     2.317000000
O    -0.424000000     1.826000000    -6.410000000
H    -1.335000000     1.762000000    -6.699000000
H    -0.483000000     2.027000000    -5.476000000
O     3.390000000     1.216000000     5.165000000
H     2.633000000     1.238000000     5.751000000
H     3.029000000     0.954000000     4.318000000
O     2.261000000     2.908000000    -0.915000000
H     2.093000000     3.212000000    -0.022000000
H     3.209000000     2.779000000    -0.949000000
O    -3.351000000    -0.058000000     3.079000000
H    -2.919000000    -0.902000000     3.214000000
H    -2.633000000     0.574000000     3.034000000
O     3.667000000    -1.922000000    -1.087000000
H     3.177000000    -1.378000000    -1.704000000
H     4.192000000    -1.300000000    -0.584000000
O    -0.896000000    -2.202000000     5.957000000
H    -1.484000000    -1.901000000     5.263000000
H    -0.066000000    -2.370000000     5.511000000
O    -6.337000000     0.069000000    -5.561000000
H    -6.699000000    -0.249000000    -4.734000000
H    -5.447000000     0.344000000    -5.343000000
O    -4.114000000    -3.166000000    -2.980000000
H    -4.996000000    -3.014000000    -2.641000000
H    -3.690000000    -3.704000000    -2.312000000
O    -5.262000000     0.915000000     1.594000000
H    -4.827000000     1.515000000     0.987000000
H    -4.558000000     0.591000000     2.156000000
O    -4.537000000     2.324000000    -0.688000000
H    -5.113000000     1.626000000    -1.000000000
H    -4.420000000     2.895000000    -1.448000000
O    -3.002000000    -4.836000000    -0.670000000
H    -3.023000000    -3.969000000    -0.265000000
H    -2.237000000    -5.262000000    -0.284000000
O    -3.936000000     5.654000000     0.861000000
H    -3.912000000     4.967000000     1.527000000
H    -3.062000000     6.044000000     0.888000000
O     5.222000000    -0.511000000     6.407000000
H     4.736000000     0.263000000     6.121000000
H     5.769000000    -0.197000000     7.127000000
O    -0.708000000    -4.398000000    -4.300000000
H    -0.196000000    -4.551000000    -3.506000000
H    -1.615000000    -4.355000000    -3.995000000
O    -3.215000000    -0.288000000    -5.828000000
H    -3.277000000    -1.224000000    -5.637000000
H    -2.896000000    -0.249000000    -6.730000000
O     3.336000000    -3.869000000     4.017000000
H     3.132000000    -3.704000000     4.937000000
H     3.964000000    -3.186000000     3.784000000
O    -0.558000000    -4.455000000     0.816000000
H    -0.839000000    -5.234000000     1.297000000
H     0.382000000    -4.393000000     0.989000000
O     2.322000000    -4.362000000     0.849000000
H     2.848000000    -4.817000000     1.507000000
H     2.929000000    -3.744000000     0.442000000
O    -2.997000000     4.410000000    -1.699000000
H    -2.074000000     4.662000000    -1.658000000
H    -3.387000000     4.802000000    -0.918000000
O    -1.679000000     6.777000000     0.126000000
H    -1.332000000     7.450000000    -0.460000000
H    -0.922000000     6.230000000     0.337000000
O     4.015000000     3.948000000     4.532000000
H     3.899000000     3.013000000     4.696000000
H     4.560000000     4.253000000     5.258000000
O    -6.002000000     0.076000000    -1.547000000
H    -5.304000000    -0.519000000    -1.820000000
H    -6.744000000    -0.152000000    -2.108000000
O     2.091000000    -3.097000000    -7.094000000
H     2.076000000    -2.623000000    -6.262000000
H     1.536000000    -3.862000000    -6.943000000
O     2.482000000     0.256000000    -2.969000000
H     2.021000000     0.797000000    -2.329000000
H     2.662000000     0.848000000    -3.699000000
O    -1.482000000     3.316000000    -3.851000000
H    -1.335000000     4.098000000    -4.385000000
H    -1.838000000     3.652000000    -3.028000000
O     0.916000000     5.707000000     0.860000000
H     1.428000000     6.491000000     1.060000000
H     1.392000000     4.995000000     1.287000000
O    -4.204000000     2.785000000    -5.564000000
H    -3.452000000     2.311000000    -5.210000000
H    -3.998000000     2.902000000    -6.491000000
O     1.025000000     0.737000000     7.061000000
H     0.136000000     0.909000000     6.751000000
H     1.178000000     1.402000000     7.731000000
O    -1.380000000     1.825000000     3.676000000
H    -1.310000000     2.038000000     4.606000000
H    -0.475000000     1.812000000     3.364000000
O     1.176000000     4.188000000     4.659000000
H     2.133000000     4.206000000     4.635000000
H     0.933000000     3.507000000     4.032000000
O     4.486000000     0.018000000     0.748000000
H     3.720000000    -0.274000000     1.242000000
H     4.836000000     0.748000000     1.260000000
O     0.080000000     4.744000000    -1.573000000
H     0.412000000     3.902000000    -1.884000000
H     0.800000000     5.111000000    -1.059000000
O     0.838000000    -0.207000000    -7.511000000
H     0.707000000     0.611000000    -7.031000000
H     1.115000000    -0.835000000    -6.844000000
O     6.237000000     2.047000000     1.518000000
H     6.267000000     2.938000000     1.865000000
H     6.065000000     2.159000000     0.583000000
O    -1.434000000     2.049000000     6.544000000
H    -2.382000000     2.029000000     6.411000000
H    -1.297000000     2.741000000     7.191000000
O    -3.144000000     3.284000000     1.974000000
H    -2.357000000     2.773000000     2.166000000
H    -3.446000000     2.949000000     1.130000000
O    -0.512000000     5.743000000     6.211000000
H    -1.279000000     5.253000000     5.916000000
H     0.232000000     5.188000000     5.976000000
O     3.567000000    -3.890000000    -3.458000000
H     4.152000000    -3.276000000    -3.014000000
H     2.700000000    -3.693000000    -3.104000000
O    -1.782000000    -2.605000000     3.173000000
H    -2.022000000    -3.009000000     2.339000000
H    -0.844000000    -2.430000000     3.093000000
O    -4.114000000    -4.800000000    -5.225000000
H    -3.996000000    -4.221000000    -4.471000000
H    -4.950000000    -4.529000000    -5.605000000
O     1.128000000    -4.350000000    -2.115000000
H     1.366000000    -4.263000000    -1.192000000
H     0.790000000    -5.242000000    -2.193000000
O     5.981000000    -2.580000000     1.519000000
H     5.656000000    -2.598000000     2.419000000
H     5.702000000    -1.729000000     1.181000000
O    -6.490000000    -2.820000000    -1.287000000
H    -6.943000000    -3.494000000    -0.780000000
H    -5.978000000    -2.337000000    -0.639000000
O     4.634000000    -1.580000000     3.644000000
H     3.921000000    -0.945000000     3.718000000
H     5.403000000    -1.115000000     3.974000000
