161
-3029.04190
C    -0.107000000    -0.415000000     1.417000000
H    -0.210000000    -0.924000000     2.372000000
C    -0.401000000    -1.232000000     0.320000000
H    -0.571000000    -2.279000000     0.555000000
C    -0.299000000    -0.706000000    -0.952000000
C    -0.206000000    -1.581000000    -2.205000000
H    -0.920000000    -2.407000000    -2.192000000
H    -0.614000000    -1.061000000    -3.075000000
H     0.775000000    -1.846000000    -2.605000000
C    -0.020000000     0.653000000    -1.101000000
H     0.026000000     1.027000000    -2.121000000
C     0.159000000     1.489000000     0.001000000
H     0.148000000     2.569000000    -0.125000000
C     0.278000000     0.925000000     1.282000000
C     0.566000000     1.706000000     2.495000000
O     0.929000000     2.879000000     2.341000000
O     0.464000000     1.199000000     3.597000000
O     3.157000000     1.074000000    -2.480000000
H     3.474000000     1.071000000    -1.576000000
H     2.336000000     1.565000000    -2.444000000
O    -1.063000000    -0.885000000     4.636000000
H    -0.786000000    -0.045000000     4.268000000
H    -0.246000000    -1.317000000     4.887000000
O     1.263000000     5.415000000     1.167000000
H     1.557000000     5.321000000     0.261000000
H     1.228000000     4.519000000     1.501000000
O    -2.020000000     2.206000000    -4.148000000
H    -1.481000000     2.995000000    -4.092000000
H    -1.599000000     1.675000000    -4.823000000
O     0.069000000     3.708000000     4.917000000
H    -0.868000000     3.824000000     4.763000000
H     0.338000000     3.049000000     4.277000000
O     2.419000000     4.616000000    -1.093000000
H     2.001000000     4.264000000    -1.879000000
H     3.250000000     4.145000000    -1.032000000
O    -3.174000000     1.360000000     1.096000000
H    -3.582000000     2.129000000     0.699000000
H    -2.280000000     1.358000000     0.752000000
O     3.447000000     0.859000000     0.145000000
H     2.763000000     0.986000000     0.803000000
H     4.208000000     1.318000000     0.499000000
O    -3.657000000    -3.440000000     0.483000000
H    -3.855000000    -2.591000000     0.088000000
H    -3.588000000    -3.258000000     1.421000000
O    -0.961000000     0.923000000     8.044000000
H    -1.172000000     1.814000000     7.767000000
H    -0.882000000     0.430000000     7.228000000
O    -3.654000000    -4.212000000    -1.972000000
H    -4.604000000    -4.129000000    -2.056000000
H    -3.467000000    -3.929000000    -1.077000000
O     5.058000000     6.085000000     3.326000000
H     4.375000000     5.490000000     3.636000000
H     5.041000000     5.993000000     2.373000000
O    -5.386000000     0.426000000    -2.717000000
H    -5.177000000     1.359000000    -2.666000000
H    -4.975000000     0.046000000    -1.940000000
O    -4.088000000     2.738000000    -2.424000000
H    -3.215000000     2.768000000    -2.815000000
H    -3.972000000     3.111000000    -1.549000000
O    -2.552000000     4.432000000     4.698000000
H    -2.513000000     5.199000000     5.270000000
H    -3.403000000     4.500000000     4.265000000
O     2.269000000    -4.982000000    -6.305000000
H     2.107000000    -4.596000000    -7.165000000
H     1.526000000    -4.700000000    -5.772000000
O     4.882000000     0.345000000     6.461000000
H     4.300000000     0.348000000     7.221000000
H     4.319000000     0.093000000     5.729000000
O     2.639000000    -2.569000000     0.916000000
H     1.968000000    -2.664000000     1.592000000
H     2.315000000    -3.089000000     0.181000000
O    -4.674000000    -0.834000000    -0.357000000
H    -4.099000000    -0.324000000     0.213000000
H    -5.556000000    -0.657000000    -0.029000000
O     2.041000000    -4.815000000    -0.865000000
H     2.320000000    -5.730000000    -0.902000000
H     1.094000000    -4.858000000    -0.736000000
O    -1.724000000    -2.352000000    -5.709000000
H    -1.837000000    -2.950000000    -6.447000000
H    -2.615000000    -2.111000000    -5.457000000
O     1.218000000    -2.401000000     5.038000000
H     0.802000000    -3.260000000     4.964000000
H     2.119000000    -2.593000000     5.297000000
O    -3.265000000     3.798000000    -0.043000000
H    -2.590000000     3.949000000     0.619000000
H    -3.696000000     4.647000000    -0.143000000
O     2.788000000     5.703000000     4.785000000
H     2.847000000     4.895000000     5.294000000
H     1.910000000     5.683000000     4.405000000
O     4.733000000    -3.114000000    -1.658000000
H     5.125000000    -2.360000000    -1.217000000
H     3.938000000    -3.297000000    -1.158000000
O    -4.152000000    -1.555000000    -4.924000000
H    -4.497000000    -0.801000000    -4.446000000
H    -4.874000000    -1.832000000    -5.488000000
O     1.941000000    -1.541000000    -5.426000000
H     2.461000000    -1.377000000    -4.639000000
H     1.311000000    -2.211000000    -5.161000000
O     1.249000000     3.011000000    -3.474000000
H     1.301000000     2.809000000    -4.408000000
H     0.472000000     3.565000000    -3.392000000
O     1.283000000     2.678000000    -6.258000000
H     1.261000000     1.737000000    -6.429000000
H     2.063000000     2.987000000    -6.718000000
O    -1.614000000     4.240000000     2.027000000
H    -1.929000000     4.118000000     2.922000000
H    -0.732000000     3.867000000     2.030000000
O    -4.359000000     2.094000000     3.705000000
H    -4.796000000     2.911000000     3.464000000
H    -3.967000000     1.782000000     2.889000000
O     2.829000000     7.512000000     2.135000000
H     2.509000000     6.610000000     2.128000000
H     2.054000000     8.043000000     1.950000000
O    -0.955000000     4.791000000    -3.631000000
H    -0.203000000     5.275000000    -3.973000000
H    -1.510000000     5.461000000    -3.231000000
O     6.203000000     2.820000000     3.883000000
H     5.266000000     2.997000000     3.960000000
H     6.356000000     2.747000000     2.940000000
O     3.455000000    -5.620000000    -3.378000000
H     3.269000000    -4.993000000    -2.679000000
H     3.255000000    -5.145000000    -4.185000000
O     0.449000000    -3.852000000    -4.475000000
H    -0.349000000    -3.333000000    -4.572000000
H     0.385000000    -4.227000000    -3.596000000
O    -3.145000000     2.298000000     6.549000000
H    -3.016000000     2.524000000     5.628000000
H    -2.536000000     2.865000000     7.022000000
O    -3.515000000    -0.857000000     5.652000000
H    -2.674000000    -0.935000000     5.201000000
H    -3.858000000    -0.008000000     5.373000000
O    -0.553000000     0.284000000    -5.665000000
H     0.122000000     0.282000000    -4.986000000
H    -0.924000000    -0.598000000    -5.635000000
O    -0.465000000     6.830000000     3.042000000
H    -0.316000000     5.947000000     2.704000000
H     0.019000000     7.401000000     2.444000000
O     1.330000000     4.420000000     7.462000000
H     2.184000000     3.992000000     7.392000000
H     0.843000000     4.111000000     6.699000000
O     0.691000000    -3.990000000     2.308000000
H     1.416000000    -4.610000000     2.231000000
H    -0.078000000    -4.539000000     2.466000000
O     2.875000000     0.991000000     8.024000000
H     2.763000000     1.665000000     7.353000000
H     2.426000000     1.343000000     8.793000000
O    -2.568000000    -3.590000000     3.201000000
H    -2.138000000    -4.445000000     3.225000000
H    -1.930000000    -2.991000000     3.587000000
O    -2.700000000    -5.480000000    -4.563000000
H    -3.114000000    -5.049000000    -3.815000000
H    -3.155000000    -5.124000000    -5.326000000
O    -1.094000000    -5.678000000    -1.148000000
H    -1.406000000    -6.231000000    -0.431000000
H    -1.891000000    -5.390000000    -1.593000000
O     2.776000000     0.299000000     4.631000000
H     2.097000000     0.971000000     4.569000000
H     2.292000000    -0.527000000     4.657000000
O     3.591000000     2.887000000     3.674000000
H     2.724000000     3.201000000     3.420000000
H     3.509000000     1.933000000     3.677000000
