161
-3032.68765
C    -0.535000000    -0.887000000     1.095000000
H    -1.001000000    -1.554000000     1.816000000
C    -0.473000000    -1.191000000    -0.236000000
H    -0.813000000    -2.149000000    -0.623000000
C     0.130000000    -0.330000000    -1.167000000
C     0.059000000    -0.634000000    -2.636000000
H     0.410000000    -1.652000000    -2.815000000
H    -0.953000000    -0.550000000    -3.037000000
H     0.771000000    -0.048000000    -3.222000000
C     0.706000000     0.869000000    -0.725000000
H     1.119000000     1.571000000    -1.445000000
C     0.580000000     1.222000000     0.593000000
H     0.929000000     2.197000000     0.925000000
C    -0.096000000     0.427000000     1.478000000
C    -0.165000000     0.812000000     2.938000000
O    -0.392000000     1.937000000     3.272000000
O    -0.284000000    -0.037000000     3.785000000
O     3.704000000     1.415000000    -6.523000000
H     3.224000000     0.632000000    -6.254000000
H     4.303000000     1.589000000    -5.796000000
O     3.205000000    -4.045000000     2.119000000
H     2.769000000    -3.204000000     2.260000000
H     2.488000000    -4.672000000     2.017000000
O     4.074000000    -1.697000000    -3.656000000
H     4.682000000    -2.419000000    -3.814000000
H     4.021000000    -1.632000000    -2.703000000
O     1.555000000    -4.232000000    -5.305000000
H     0.694000000    -3.886000000    -5.071000000
H     1.847000000    -4.697000000    -4.521000000
O     2.148000000     3.229000000     3.785000000
H     2.473000000     3.305000000     4.682000000
H     1.310000000     2.773000000     3.872000000
O    -0.145000000     1.199000000     6.257000000
H    -0.963000000     0.884000000     6.640000000
H    -0.184000000     0.919000000     5.343000000
O     3.010000000     3.663000000    -3.837000000
H     3.625000000     2.932000000    -3.789000000
H     2.150000000     3.262000000    -3.714000000
O    -4.046000000     0.959000000    -0.650000000
H    -4.082000000     0.344000000     0.082000000
H    -4.420000000     1.768000000    -0.302000000
O    -0.029000000    -5.574000000    -0.542000000
H     0.166000000    -4.723000000    -0.935000000
H     0.253000000    -5.487000000     0.369000000
O    -1.632000000    -1.473000000     5.341000000
H    -1.572000000    -2.307000000     4.874000000
H    -1.115000000    -0.865000000     4.813000000
O    -2.043000000    -1.466000000    -5.959000000
H    -2.629000000    -0.966000000    -5.391000000
H    -2.392000000    -1.332000000    -6.841000000
O     2.418000000     4.719000000    -1.239000000
H     3.149000000     5.148000000    -0.794000000
H     2.724000000     4.594000000    -2.138000000
O    -4.448000000    -4.082000000     0.354000000
H    -3.675000000    -3.924000000    -0.188000000
H    -4.203000000    -4.822000000     0.910000000
O    -4.761000000     3.417000000     1.070000000
H    -5.050000000     4.236000000     0.668000000
H    -3.806000000     3.474000000     1.071000000
O    -0.203000000     4.825000000    -0.298000000
H     0.687000000     4.635000000    -0.598000000
H    -0.693000000     5.002000000    -1.101000000
O     2.683000000    -1.253000000    -5.912000000
H     1.922000000    -1.833000000    -5.888000000
H     3.085000000    -1.349000000    -5.049000000
O    -4.922000000    -1.843000000    -1.874000000
H    -4.770000000    -1.150000000    -1.231000000
H    -5.874000000    -1.898000000    -1.946000000
O    -3.432000000    -0.180000000     3.310000000
H    -2.608000000    -0.509000000     3.669000000
H    -3.802000000     0.356000000     4.011000000
O    -0.918000000    -3.328000000    -4.540000000
H    -1.673000000    -3.443000000    -3.962000000
H    -1.136000000    -2.561000000    -5.069000000
O    -4.610000000    -1.284000000     0.899000000
H    -4.671000000    -2.239000000     0.872000000
H    -4.036000000    -1.102000000     1.642000000
O    -0.219000000    -4.075000000     4.663000000
H    -0.090000000    -5.009000000     4.832000000
H     0.419000000    -3.640000000     5.228000000
O     0.857000000    -5.394000000     1.990000000
H     0.393000000    -5.035000000     2.746000000
H     1.237000000    -6.213000000     2.309000000
O     4.789000000     1.137000000    -4.119000000
H     4.511000000     0.317000000    -3.711000000
H     5.640000000     0.934000000    -4.508000000
O    -3.857000000    -0.313000000    -4.111000000
H    -3.489000000     0.391000000    -3.579000000
H    -4.805000000    -0.211000000    -4.022000000
O     2.039000000    -5.403000000    -3.005000000
H     1.722000000    -4.798000000    -2.334000000
H     2.742000000    -5.891000000    -2.575000000
O     0.398000000    -1.864000000    -7.331000000
H     0.696000000    -0.957000000    -7.261000000
H    -0.474000000    -1.860000000    -6.938000000
O     4.453000000    -0.994000000    -0.900000000
H     4.836000000    -1.744000000    -0.445000000
H     4.551000000    -0.266000000    -0.286000000
O    -0.091000000     0.969000000    -6.280000000
H     0.074000000     1.180000000    -7.199000000
H    -0.891000000     0.444000000    -6.295000000
O     0.636000000     5.236000000     2.536000000
H     0.274000000     5.115000000     1.658000000
H     1.259000000     4.516000000     2.640000000
O     1.037000000     5.444000000     5.822000000
H     1.190000000     4.563000000     6.165000000
H     1.882000000     5.711000000     5.461000000
O     0.241000000     5.285000000    -4.842000000
H    -0.265000000     5.600000000    -4.094000000
H     0.384000000     4.356000000    -4.661000000
O    -4.327000000     4.234000000     4.918000000
H    -3.418000000     4.160000000     4.628000000
H    -4.495000000     5.176000000     4.944000000
O    -1.516000000     3.999000000     4.516000000
H    -0.990000000     4.783000000     4.359000000
H    -1.080000000     3.312000000     4.011000000
O     1.927000000    -3.295000000    -1.157000000
H     1.629000000    -2.398000000    -1.007000000
H     2.832000000    -3.301000000    -0.846000000
O    -1.994000000     3.543000000     1.163000000
H    -1.363000000     3.898000000     0.536000000
H    -1.516000000     2.848000000     1.616000000
O    -3.392000000    -3.640000000    -3.143000000
H    -3.112000000    -4.166000000    -2.393000000
H    -3.731000000    -2.833000000    -2.756000000
O     0.608000000     2.566000000    -4.334000000
H     0.362000000     1.919000000    -4.995000000
H    -0.055000000     2.473000000    -3.649000000
O     4.354000000     0.380000000     3.409000000
H     3.489000000     0.146000000     3.074000000
H     4.842000000     0.664000000     2.636000000
O    -1.705000000    -0.901000000     7.935000000
H    -1.628000000    -1.312000000     7.074000000
H    -2.300000000    -0.164000000     7.796000000
O     1.989000000     2.992000000     6.497000000
H     1.272000000     2.381000000     6.327000000
H     2.086000000     2.987000000     7.449000000
O    -1.407000000     2.027000000    -2.511000000
H    -0.989000000     1.245000000    -2.151000000
H    -2.319000000     1.964000000    -2.226000000
O     4.146000000     3.630000000     1.444000000
H     3.505000000     3.230000000     2.032000000
H     3.733000000     3.598000000     0.581000000
O    -2.816000000    -5.652000000    -1.182000000
H    -1.914000000    -5.644000000    -0.864000000
H    -2.975000000    -6.563000000    -1.429000000
O    -2.390000000     3.768000000     7.447000000
H    -1.802000000     3.941000000     6.712000000
H    -2.727000000     4.630000000     7.692000000
O     1.567000000    -0.540000000     7.925000000
H     1.660000000    -0.142000000     8.791000000
H     0.636000000    -0.455000000     7.721000000
O    -2.633000000    -3.800000000     3.622000000
H    -1.879000000    -4.099000000     4.129000000
H    -2.902000000    -4.567000000     3.116000000
O    -3.154000000     5.936000000     1.956000000
H    -2.875000000     5.065000000     1.674000000
H    -4.085000000     5.972000000     1.740000000
O     1.931000000    -1.806000000     3.459000000
H     1.142000000    -1.349000000     3.167000000
H     1.751000000    -2.035000000     4.371000000
