161
-3046.76303
C     0.034000000    -0.261000000     1.428000000
H     0.147000000    -0.558000000     2.468000000
C     0.999000000    -0.614000000     0.500000000
H     1.855000000    -1.176000000     0.865000000
C     0.887000000    -0.269000000    -0.842000000
C     2.054000000    -0.639000000    -1.749000000
H     1.699000000    -0.603000000    -2.781000000
H     2.780000000     0.168000000    -1.625000000
H     2.482000000    -1.599000000    -1.453000000
C    -0.256000000     0.354000000    -1.255000000
H    -0.299000000     0.631000000    -2.306000000
C    -1.244000000     0.770000000    -0.336000000
H    -2.165000000     1.266000000    -0.631000000
C    -1.121000000     0.397000000     1.038000000
C    -2.292000000     0.678000000     2.005000000
O    -3.406000000     0.841000000     1.471000000
O    -2.161000000     0.610000000     3.206000000
O    -1.401000000    -2.691000000    -5.553000000
H    -1.580000000    -1.764000000    -5.709000000
H    -2.265000000    -3.084000000    -5.430000000
O     2.322000000    -4.272000000     0.250000000
H     2.818000000    -3.765000000    -0.392000000
H     1.612000000    -4.669000000    -0.255000000
O     0.485000000     4.670000000    -4.114000000
H     0.304000000     4.885000000    -3.199000000
H     0.593000000     3.719000000    -4.120000000
O    -5.625000000     1.457000000     2.852000000
H    -5.551000000     1.481000000     3.806000000
H    -4.731000000     1.304000000     2.547000000
O     0.498000000    -1.006000000     6.797000000
H     1.384000000    -1.367000000     6.816000000
H     0.243000000    -1.043000000     5.875000000
O    -7.687000000     2.189000000     1.138000000
H    -7.870000000     3.112000000     0.964000000
H    -7.009000000     2.202000000     1.814000000
O    -0.962000000    -2.802000000    -1.496000000
H    -1.074000000    -2.133000000    -0.821000000
H    -0.641000000    -3.569000000    -1.021000000
O    -3.005000000    -1.650000000     4.378000000
H    -2.283000000    -1.814000000     4.984000000
H    -2.817000000    -0.787000000     4.010000000
O    -4.759000000    -1.179000000     0.671000000
H    -4.201000000    -0.429000000     0.877000000
H    -5.524000000    -0.797000000     0.240000000
O    -4.909000000    -2.717000000     2.886000000
H    -4.247000000    -2.661000000     3.575000000
H    -4.606000000    -2.107000000     2.214000000
O     4.781000000    -4.286000000     2.333000000
H     4.457000000    -5.137000000     2.036000000
H     5.578000000    -4.491000000     2.821000000
O    -3.488000000     1.753000000     5.391000000
H    -3.008000000     1.667000000     4.567000000
H    -2.914000000     1.357000000     6.046000000
O     6.065000000     1.234000000     0.061000000
H     5.919000000     0.524000000     0.687000000
H     6.655000000     0.859000000    -0.593000000
O     4.560000000     0.826000000    -4.436000000
H     4.220000000     1.502000000    -5.022000000
H     5.100000000     1.304000000    -3.806000000
O     1.257000000    -3.942000000     2.973000000
H     1.711000000    -4.115000000     2.148000000
H     0.672000000    -4.691000000     3.086000000
O    -6.035000000     2.558000000     5.891000000
H    -6.416000000     3.399000000     5.638000000
H    -5.133000000     2.599000000     5.572000000
O     5.689000000    -1.921000000     0.452000000
H     5.369000000    -2.477000000     1.162000000
H     6.402000000    -2.424000000     0.058000000
O     5.534000000    -1.959000000    -4.329000000
H     5.008000000    -2.584000000    -3.830000000
H     5.136000000    -1.108000000    -4.144000000
O    -7.249000000    -0.212000000    -0.169000000
H    -8.051000000    -0.653000000     0.112000000
H    -7.280000000     0.640000000     0.265000000
O     0.088000000     4.108000000     0.539000000
H    -0.737000000     4.021000000     0.061000000
H     0.747000000     3.748000000    -0.054000000
O    -3.655000000    -1.706000000    -2.266000000
H    -4.000000000    -2.287000000    -1.587000000
H    -2.820000000    -2.100000000    -2.516000000
O     5.129000000     3.703000000    -0.517000000
H     5.296000000     3.922000000     0.400000000
H     5.273000000     2.758000000    -0.567000000
O    -4.297000000    -3.856000000     0.034000000
H    -4.491000000    -3.020000000     0.457000000
H    -3.484000000    -4.150000000     0.446000000
O     0.116000000     2.433000000     4.165000000
H     0.880000000     2.465000000     3.589000000
H    -0.361000000     1.652000000     3.887000000
O     3.581000000    -0.951000000     5.821000000
H     3.490000000    -1.316000000     4.941000000
H     3.684000000    -1.716000000     6.388000000
O     0.871000000     1.832000000    -4.182000000
H     0.755000000     1.242000000    -3.437000000
H     1.169000000     1.265000000    -4.893000000
O     3.314000000    -2.273000000     3.680000000
H     2.376000000    -2.461000000     3.720000000
H     3.699000000    -3.059000000     3.293000000
O    -3.332000000     2.589000000    -2.892000000
H    -3.927000000     3.112000000    -3.430000000
H    -3.908000000     2.084000000    -2.318000000
O     1.672000000     2.319000000     1.905000000
H     1.002000000     2.551000000     1.263000000
H     2.126000000     1.570000000     1.519000000
O     0.052000000    -5.344000000    -0.713000000
H    -0.799000000    -5.679000000    -0.995000000
H     0.301000000    -5.910000000     0.018000000
O     2.015000000    -5.264000000    -4.146000000
H     2.363000000    -5.246000000    -5.037000000
H     1.397000000    -4.533000000    -4.116000000
O     4.533000000    -4.097000000    -3.213000000
H     4.830000000    -4.455000000    -2.376000000
H     3.888000000    -4.730000000    -3.528000000
O    -1.790000000     4.524000000     5.284000000
H    -1.273000000     3.890000000     4.787000000
H    -2.657000000     4.495000000     4.881000000
O     2.415000000    -0.950000000    -5.769000000
H     3.348000000    -1.162000000    -5.794000000
H     2.067000000    -1.485000000    -5.055000000
O    -1.856000000     0.575000000    -5.078000000
H    -2.251000000     1.072000000    -4.362000000
H    -1.457000000     1.240000000    -5.639000000
O     3.758000000     2.917000000     3.504000000
H     2.939000000     2.702000000     3.057000000
H     3.507000000     3.038000000     4.419000000
O     5.210000000    -5.170000000    -0.945000000
H     4.484000000    -5.590000000    -0.483000000
H     5.972000000    -5.709000000    -0.733000000
O    -4.275000000     3.653000000     1.314000000
H    -4.047000000     2.735000000     1.455000000
H    -4.667000000     3.671000000     0.440000000
O    -5.201000000     0.796000000    -2.219000000
H    -5.842000000     0.510000000    -1.569000000
H    -4.548000000     0.096000000    -2.235000000
O    -0.186000000    -2.251000000     4.559000000
H     0.420000000    -2.833000000     4.101000000
H    -0.697000000    -2.832000000     5.123000000
O     2.530000000     3.558000000    -1.482000000
H     3.457000000     3.565000000    -1.245000000
H     2.505000000     3.132000000    -2.339000000
O    -3.751000000    -1.376000000     7.028000000
H    -4.523000000    -1.848000000     7.339000000
H    -3.776000000    -1.478000000     6.076000000
O    -4.324000000     4.512000000     3.857000000
H    -4.425000000     4.035000000     3.034000000
H    -4.870000000     5.292000000     3.750000000
O     5.028000000     0.471000000     3.103000000
H     4.574000000     1.287000000     3.312000000
H     4.328000000    -0.177000000     3.015000000
O     0.361000000    -0.761000000    -7.550000000
H     0.405000000    -1.651000000    -7.901000000
H     1.114000000    -0.698000000    -6.963000000
O    -2.274000000     4.491000000    -1.512000000
H    -2.431000000     3.655000000    -1.951000000
H    -2.797000000     5.123000000    -2.006000000
O    -7.560000000    -0.638000000     3.122000000
H    -7.017000000     0.112000000     3.364000000
H    -6.955000000    -1.242000000     2.691000000
O     0.612000000    -2.879000000    -3.825000000
H     0.262000000    -3.101000000    -2.962000000
H    -0.157000000    -2.854000000    -4.395000000
