161
-3002.43740
C     0.061000000    -0.370000000     1.418000000
H     0.236000000    -0.694000000     2.441000000
C     1.046000000    -0.549000000     0.462000000
H     2.019000000    -0.993000000     0.659000000
C     0.854000000    -0.200000000    -0.854000000
C     2.057000000    -0.402000000    -1.776000000
H     2.862000000    -1.023000000    -1.376000000
H     1.729000000    -0.949000000    -2.662000000
H     2.443000000     0.563000000    -2.111000000
C    -0.338000000     0.444000000    -1.193000000
H    -0.440000000     0.649000000    -2.256000000
C    -1.415000000     0.615000000    -0.268000000
H    -2.262000000     1.246000000    -0.525000000
C    -1.163000000     0.190000000     1.052000000
C    -2.269000000     0.370000000     2.063000000
O    -3.384000000     0.603000000     1.717000000
O    -2.029000000     0.492000000     3.210000000
O     0.532000000     4.413000000    -2.522000000
H     1.253000000     4.764000000    -2.000000000
H     0.949000000     4.092000000    -3.322000000
O    -5.165000000     1.704000000     3.180000000
H    -4.674000000     1.787000000     3.998000000
H    -4.548000000     1.300000000     2.570000000
O     2.022000000    -0.072000000     5.861000000
H     2.965000000    -0.227000000     5.906000000
H     1.687000000    -0.789000000     5.323000000
O    -4.956000000     1.302000000    -0.448000000
H    -4.310000000     1.197000000    -1.147000000
H    -4.489000000     1.051000000     0.349000000
O     0.268000000    -0.393000000    -7.637000000
H     0.045000000     0.386000000    -7.128000000
H     0.762000000    -0.943000000    -7.029000000
O     1.265000000    -3.733000000    -1.463000000
H     2.130000000    -3.433000000    -1.182000000
H     0.651000000    -3.178000000    -0.982000000
O    -2.992000000    -1.695000000     4.538000000
H    -2.501000000    -2.301000000     3.985000000
H    -2.525000000    -0.863000000     4.456000000
O    -1.354000000     3.443000000    -5.218000000
H    -1.068000000     2.543000000    -5.063000000
H    -2.028000000     3.367000000    -5.894000000
O    -3.672000000    -2.261000000     1.148000000
H    -3.810000000    -1.533000000     1.755000000
H    -3.984000000    -3.031000000     1.623000000
O    -5.579000000    -2.266000000     5.693000000
H    -4.765000000    -2.014000000     5.258000000
H    -6.167000000    -1.524000000     5.548000000
O    -3.401000000     1.612000000     5.310000000
H    -2.773000000     1.278000000     4.669000000
H    -2.890000000     1.713000000     6.114000000
O     5.274000000     1.160000000    -0.042000000
H     4.857000000     0.813000000     0.747000000
H     5.645000000     0.391000000    -0.474000000
O    -4.044000000     5.593000000    -0.537000000
H    -3.498000000     4.993000000    -1.044000000
H    -3.723000000     6.464000000    -0.769000000
O     5.196000000     0.888000000    -3.191000000
H     4.452000000     1.271000000    -2.727000000
H     5.908000000     0.898000000    -2.551000000
O     1.377000000    -4.419000000     1.987000000
H     1.957000000    -4.896000000     1.394000000
H     0.820000000    -5.095000000     2.374000000
O    -6.067000000     2.149000000     6.267000000
H    -5.167000000     1.859000000     6.118000000
H    -6.605000000     1.510000000     5.799000000
O     5.706000000    -1.655000000    -0.653000000
H     4.968000000    -2.264000000    -0.667000000
H     6.441000000    -2.175000000    -0.328000000
O     6.712000000     0.310000000    -5.565000000
H     6.084000000     0.195000000    -4.852000000
H     6.450000000     1.128000000    -5.986000000
O    -6.921000000    -1.046000000    -0.176000000
H    -7.479000000    -1.287000000     0.564000000
H    -6.241000000    -0.493000000     0.208000000
O    -0.365000000     5.436000000     1.047000000
H    -1.086000000     4.989000000     0.603000000
H     0.356000000     4.807000000     1.026000000
O    -2.422000000    -2.535000000    -1.218000000
H    -1.689000000    -2.001000000    -0.911000000
H    -2.974000000    -2.651000000    -0.445000000
O     5.164000000     3.863000000    -0.502000000
H     5.124000000     4.172000000     0.403000000
H     5.132000000     2.909000000    -0.431000000
O    -1.611000000    -3.821000000     3.255000000
H    -1.541000000    -3.023000000     2.732000000
H    -1.574000000    -4.531000000     2.614000000
O    -0.371000000     2.548000000     4.125000000
H    -0.696000000     3.232000000     3.539000000
H    -0.836000000     1.758000000     3.850000000
O    -5.497000000    -0.959000000    -2.529000000
H    -6.396000000    -0.934000000    -2.200000000
H    -5.022000000    -1.488000000    -1.889000000
O     3.214000000     0.828000000    -5.355000000
H     3.887000000     0.621000000    -4.706000000
H     3.704000000     1.027000000    -6.153000000
O     3.137000000    -2.573000000     2.648000000
H     2.488000000    -3.248000000     2.449000000
H     3.955000000    -2.911000000     2.285000000
O    -3.288000000     1.557000000    -2.643000000
H    -3.628000000     2.349000000    -3.059000000
H    -3.164000000     0.942000000    -3.365000000
O     0.929000000     2.871000000     0.698000000
H     0.755000000     3.063000000    -0.223000000
H     0.952000000     1.915000000     0.743000000
O     0.649000000     1.342000000    -5.367000000
H     1.524000000     0.979000000    -5.509000000
H     0.677000000     2.203000000    -5.785000000
O     4.043000000    -3.723000000    -1.127000000
H     4.026000000    -4.420000000    -0.471000000
H     4.076000000    -4.183000000    -1.966000000
O    -0.751000000     4.733000000     5.693000000
H    -0.497000000     3.877000000     5.348000000
H    -1.598000000     4.914000000     5.284000000
O     3.306000000    -3.762000000    -4.922000000
H     3.659000000    -4.509000000    -4.439000000
H     2.377000000    -3.747000000    -4.693000000
O    -0.827000000    -1.355000000    -4.421000000
H    -0.219000000    -2.091000000    -4.490000000
H    -0.315000000    -0.594000000    -4.694000000
O     2.309000000     2.282000000     3.453000000
H     1.497000000     2.397000000     3.945000000
H     2.040000000     2.315000000     2.535000000
O    -2.745000000     3.567000000     1.720000000
H    -3.008000000     2.647000000     1.747000000
H    -3.064000000     3.883000000     0.875000000
O    -2.801000000     0.286000000    -4.909000000
H    -2.101000000    -0.172000000    -4.443000000
H    -2.922000000    -0.217000000    -5.714000000
O    -7.334000000     3.161000000     3.408000000
H    -6.484000000     2.725000000     3.341000000
H    -7.124000000     4.051000000     3.690000000
O    -1.757000000     1.241000000     7.601000000
H    -1.835000000     0.381000000     8.015000000
H    -2.123000000     1.850000000     8.243000000
O     0.711000000    -2.455000000     5.008000000
H     0.299000000    -2.807000000     4.219000000
H     0.772000000    -3.204000000     5.601000000
O    -2.845000000    -1.566000000     7.488000000
H    -3.338000000    -1.525000000     8.308000000
H    -3.439000000    -1.200000000     6.833000000
O    -2.986000000     4.881000000     4.193000000
H    -3.149000000     4.464000000     3.347000000
H    -3.850000000     5.169000000     4.488000000
O    -7.293000000     1.712000000    -2.021000000
H    -6.518000000     1.311000000    -1.628000000
H    -7.036000000     2.619000000    -2.185000000
O     4.214000000     0.352000000     2.537000000
H     3.592000000     0.859000000     3.059000000
H     3.989000000    -0.561000000     2.718000000
O     3.009000000    -1.899000000    -7.061000000
H     2.466000000    -2.563000000    -7.486000000
H     3.485000000    -2.377000000    -6.382000000
O     2.058000000     3.518000000    -4.589000000
H     2.537000000     2.798000000    -4.178000000
H     2.300000000     3.470000000    -5.514000000
O    -1.876000000     4.021000000    -1.596000000
H    -1.077000000     4.361000000    -1.998000000
H    -2.152000000     3.310000000    -2.174000000
O     0.193000000    -3.805000000    -4.124000000
H     0.425000000    -3.889000000    -3.199000000
H    -0.684000000    -4.182000000    -4.187000000
