161
-3063.85450
C    -0.484000000    -0.346000000     1.291000000
H    -0.701000000    -0.726000000     2.286000000
C     0.742000000    -0.737000000     0.759000000
H     1.368000000    -1.320000000     1.429000000
C     1.059000000    -0.376000000    -0.500000000
C     2.326000000    -0.865000000    -1.153000000
H     3.250000000    -0.446000000    -0.749000000
H     2.280000000    -1.956000000    -1.131000000
H     2.320000000    -0.593000000    -2.210000000
C     0.162000000     0.365000000    -1.250000000
H     0.501000000     0.726000000    -2.217000000
C    -1.007000000     0.916000000    -0.611000000
H    -1.688000000     1.533000000    -1.192000000
C    -1.327000000     0.545000000     0.669000000
C    -2.598000000     1.014000000     1.333000000
O    -3.499000000     1.478000000     0.727000000
O    -2.700000000     0.788000000     2.520000000
O     4.633000000    -1.947000000     2.174000000
H     5.144000000    -2.635000000     1.749000000
H     3.822000000    -2.380000000     2.439000000
O     2.596000000     2.678000000    -0.789000000
H     1.995000000     2.974000000    -0.106000000
H     2.218000000     1.856000000    -1.101000000
O    -2.615000000     0.850000000    -3.668000000
H    -3.449000000     0.610000000    -4.073000000
H    -2.786000000     1.695000000    -3.251000000
O     5.187000000     1.364000000    -2.395000000
H     4.254000000     1.577000000    -2.407000000
H     5.263000000     0.588000000    -2.949000000
O    -2.483000000     2.074000000     6.709000000
H    -2.368000000     1.315000000     6.136000000
H    -2.682000000     2.796000000     6.113000000
O    -4.760000000    -0.950000000     4.372000000
H    -5.037000000    -0.868000000     3.459000000
H    -4.407000000    -0.089000000     4.594000000
O     4.704000000     3.806000000     0.694000000
H     4.308000000     3.126000000     0.149000000
H     5.288000000     3.330000000     1.284000000
O    -4.830000000     0.778000000    -1.521000000
H    -4.678000000     1.540000000    -2.081000000
H    -4.283000000     0.934000000    -0.752000000
O    -1.826000000    -5.673000000     1.706000000
H    -1.771000000    -5.155000000     2.509000000
H    -2.464000000    -5.209000000     1.164000000
O    -2.308000000     5.341000000     2.093000000
H    -1.847000000     4.774000000     2.711000000
H    -2.247000000     6.216000000     2.478000000
O    -3.996000000     4.373000000     5.646000000
H    -4.263000000     3.559000000     5.220000000
H    -4.803000000     4.718000000     6.029000000
O    -5.351000000    -0.786000000     1.717000000
H    -5.183000000    -1.449000000     1.047000000
H    -4.934000000     0.007000000     1.379000000
O     2.798000000     3.532000000    -3.369000000
H     2.663000000     3.320000000    -2.445000000
H     2.999000000     4.467000000    -3.373000000
O    -7.620000000     0.383000000     2.647000000
H    -6.851000000     0.004000000     2.221000000
H    -7.864000000    -0.256000000     3.316000000
O     2.080000000     1.210000000    -4.753000000
H     2.298000000     2.116000000    -4.533000000
H     1.126000000     1.170000000    -4.685000000
O     3.300000000    -0.679000000    -6.209000000
H     2.742000000    -0.048000000    -5.755000000
H     2.760000000    -1.465000000    -6.286000000
O     1.207000000    -4.389000000     4.605000000
H     1.191000000    -5.149000000     4.023000000
H     1.921000000    -4.570000000     5.216000000
O     4.463000000    -3.644000000    -2.321000000
H     4.712000000    -3.804000000    -3.231000000
H     5.231000000    -3.904000000    -1.813000000
O    -6.062000000     4.796000000    -1.431000000
H    -6.528000000     4.873000000    -0.599000000
H    -5.203000000     5.183000000    -1.262000000
O    -1.380000000    -2.943000000     0.042000000
H    -2.320000000    -3.003000000    -0.131000000
H    -1.295000000    -2.214000000     0.657000000
O    -0.703000000     5.910000000    -1.025000000
H    -1.475000000     6.373000000    -0.699000000
H    -0.112000000     6.605000000    -1.314000000
O    -0.383000000    -3.320000000    -2.489000000
H    -0.598000000    -3.000000000    -1.613000000
H    -1.231000000    -3.423000000    -2.922000000
O    -4.246000000    -3.722000000     4.320000000
H    -4.461000000    -2.804000000     4.483000000
H    -3.310000000    -3.717000000     4.122000000
O    -1.851000000    -0.288000000     4.919000000
H    -0.895000000    -0.320000000     4.889000000
H    -2.106000000     0.071000000     4.069000000
O     2.486000000     1.588000000     3.199000000
H     2.524000000     0.633000000     3.239000000
H     1.551000000     1.790000000     3.161000000
O     1.001000000     4.085000000     1.115000000
H     0.841000000     3.478000000     1.838000000
H     0.128000000     4.360000000     0.835000000
O    -3.857000000     4.427000000     0.047000000
H    -3.514000000     3.534000000     0.094000000
H    -3.376000000     4.904000000     0.722000000
O    -1.463000000    -3.847000000     3.697000000
H    -0.828000000    -4.258000000     4.284000000
H    -1.047000000    -3.027000000     3.431000000
O     0.834000000    -4.599000000     0.774000000
H     0.961000000    -4.985000000    -0.092000000
H    -0.046000000    -4.224000000     0.743000000
O    -4.460000000     3.000000000    -2.882000000
H    -5.236000000     3.415000000    -2.506000000
H    -3.762000000     3.644000000    -2.762000000
O     0.388000000    -1.773000000    -5.121000000
H     0.276000000    -0.839000000    -5.299000000
H     0.144000000    -1.872000000    -4.201000000
O     6.640000000     1.443000000     0.108000000
H     5.924000000     1.375000000     0.739000000
H     6.224000000     1.301000000    -0.742000000
O     4.971000000    -1.279000000    -3.379000000
H     4.887000000    -1.819000000    -4.165000000
H     4.559000000    -1.797000000    -2.688000000
O     5.873000000    -0.845000000     4.321000000
H     6.628000000    -0.407000000     3.929000000
H     5.364000000    -1.160000000     3.574000000
O     0.741000000    -1.291000000     4.629000000
H     1.186000000    -0.748000000     5.280000000
H     0.774000000    -2.176000000     4.992000000
O    -6.008000000     2.441000000     1.496000000
H    -6.338000000     3.064000000     0.849000000
H    -5.088000000     2.319000000     1.263000000
O    -7.828000000     0.422000000    -1.206000000
H    -7.827000000    -0.505000000    -0.968000000
H    -6.902000000     0.667000000    -1.215000000
O    -4.954000000    -1.995000000    -2.825000000
H    -4.708000000    -1.071000000    -2.869000000
H    -5.774000000    -2.002000000    -2.331000000
O     3.854000000    -6.764000000    -2.064000000
H     3.327000000    -5.972000000    -1.959000000
H     4.481000000    -6.731000000    -1.341000000
O    -0.613000000     0.938000000    -5.624000000
H    -1.402000000     1.076000000    -5.100000000
H    -0.935000000     0.838000000    -6.520000000
O    -0.051000000     2.230000000     3.155000000
H    -0.415000000     2.707000000     3.901000000
H    -0.761000000     1.657000000     2.867000000
O    -1.567000000     3.821000000     4.595000000
H    -2.356000000     4.247000000     4.930000000
H    -0.848000000     4.374000000     4.900000000
O    -2.810000000    -2.005000000     6.904000000
H    -2.529000000    -1.478000000     6.156000000
H    -2.031000000    -2.502000000     7.153000000
O     4.779000000     0.862000000     1.902000000
H     4.642000000    -0.083000000     1.964000000
H     4.116000000     1.238000000     2.481000000
O    -4.594000000     2.393000000     3.958000000
H    -5.288000000     2.620000000     3.340000000
H    -3.920000000     1.979000000     3.419000000
O    -2.126000000     4.478000000    -2.987000000
H    -1.861000000     5.196000000    -2.412000000
H    -1.314000000     4.198000000    -3.409000000
O     2.097000000    -4.583000000    -1.776000000
H     1.412000000    -4.128000000    -2.264000000
H     2.900000000    -4.110000000    -1.993000000
O     2.489000000    -3.349000000     2.386000000
H     1.939000000    -3.797000000     1.742000000
H     2.143000000    -3.631000000     3.233000000
