161
-3069.13864
C    -1.224000000    -0.113000000    -0.848000000
H    -2.063000000    -0.410000000    -1.472000000
C     0.116000000    -0.276000000    -1.284000000
H     0.339000000    -0.735000000    -2.244000000
C     1.190000000    -0.062000000    -0.416000000
C     2.566000000    -0.685000000    -0.701000000
H     3.356000000    -0.125000000    -0.195000000
H     2.671000000    -1.690000000    -0.287000000
H     2.809000000    -0.692000000    -1.765000000
C     0.941000000     0.386000000     0.893000000
H     1.763000000     0.499000000     1.595000000
C    -0.405000000     0.606000000     1.270000000
H    -0.648000000     0.887000000     2.292000000
C    -1.472000000     0.447000000     0.372000000
C    -2.927000000     0.560000000     0.809000000
O    -3.104000000     1.255000000     1.794000000
O    -3.902000000     0.146000000     0.189000000
O     5.389000000    -3.409000000     1.860000000
H     5.210000000    -4.292000000     1.536000000
H     5.056000000    -3.411000000     2.757000000
O     6.865000000    -1.213000000    -3.782000000
H     6.002000000    -1.498000000    -3.482000000
H     7.371000000    -1.094000000    -2.978000000
O     4.271000000    -2.200000000    -3.131000000
H     4.561000000    -2.820000000    -2.462000000
H     3.331000000    -2.359000000    -3.214000000
O    -0.235000000     3.586000000    -1.374000000
H    -0.339000000     3.100000000    -2.192000000
H    -0.829000000     3.152000000    -0.761000000
O    -5.157000000     1.075000000     6.097000000
H    -4.331000000     1.211000000     5.632000000
H    -5.820000000     1.463000000     5.526000000
O     5.096000000     1.936000000     1.070000000
H     4.564000000     2.118000000     0.295000000
H     5.976000000     2.226000000     0.830000000
O    -4.404000000    -0.749000000    -2.329000000
H    -4.105000000     0.024000000    -2.808000000
H    -4.200000000    -0.556000000    -1.414000000
O    -1.314000000    -2.088000000     2.564000000
H    -0.653000000    -1.786000000     3.186000000
H    -0.963000000    -1.847000000     1.706000000
O    -1.631000000    -1.070000000    -4.608000000
H    -1.980000000    -1.713000000    -3.990000000
H    -2.168000000    -1.175000000    -5.393000000
O     3.711000000    -0.017000000    -4.628000000
H     3.977000000    -0.784000000    -4.122000000
H     2.864000000    -0.258000000    -5.003000000
O     1.939000000    -3.118000000     3.386000000
H     2.653000000    -2.863000000     3.972000000
H     1.166000000    -3.147000000     3.949000000
O     5.537000000    -4.206000000    -1.396000000
H     5.096000000    -4.587000000    -2.156000000
H     5.650000000    -4.939000000    -0.792000000
O    -5.420000000     3.184000000    -0.593000000
H    -6.021000000     2.479000000    -0.832000000
H    -5.710000000     3.462000000     0.276000000
O    -1.338000000     1.915000000    -3.468000000
H    -1.114000000     0.985000000    -3.502000000
H    -2.150000000     1.948000000    -2.963000000
O     5.931000000     1.651000000    -4.278000000
H     5.097000000     1.247000000    -4.038000000
H     6.566000000     0.936000000    -4.228000000
O    -2.849000000    -1.320000000     5.129000000
H    -2.878000000    -0.486000000     4.659000000
H    -1.917000000    -1.521000000     5.203000000
O    -4.803000000    -1.293000000     2.655000000
H    -4.933000000    -0.931000000     3.532000000
H    -4.300000000    -0.623000000     2.192000000
O    -2.816000000     1.221000000     4.403000000
H    -1.924000000     1.564000000     4.455000000
H    -3.051000000     1.305000000     3.478000000
O    -2.712000000    -3.404000000    -3.034000000
H    -2.812000000    -4.340000000    -3.208000000
H    -3.452000000    -3.184000000    -2.468000000
O     2.336000000     3.828000000    -1.057000000
H     2.782000000     3.691000000    -1.892000000
H     1.410000000     3.681000000    -1.253000000
O     8.157000000    -0.491000000    -1.636000000
H     7.609000000    -0.756000000    -0.897000000
H     8.320000000     0.441000000    -1.490000000
O     2.285000000     4.171000000     1.592000000
H     2.213000000     3.667000000     0.781000000
H     1.391000000     4.463000000     1.773000000
O    -0.806000000     5.306000000     1.791000000
H    -1.341000000     4.718000000     1.258000000
H    -0.645000000     6.061000000     1.226000000
O    -2.905000000     3.681000000     0.426000000
H    -2.700000000     2.973000000     1.037000000
H    -3.700000000     3.390000000    -0.020000000
O    -0.047000000    -3.257000000    -0.829000000
H    -0.900000000    -3.157000000    -1.252000000
H     0.577000000    -3.290000000    -1.554000000
O    -7.645000000     1.743000000    -1.913000000
H    -8.266000000     2.471000000    -1.932000000
H    -8.157000000     0.983000000    -2.191000000
O     1.871000000    -3.249000000    -3.128000000
H     1.442000000    -2.526000000    -3.585000000
H     1.882000000    -3.963000000    -3.766000000
O     1.013000000    -1.126000000    -4.707000000
H     0.062000000    -1.164000000    -4.605000000
H     1.150000000    -1.038000000    -5.650000000
O     6.226000000    -1.735000000     0.029000000
H     5.654000000    -2.054000000     0.727000000
H     5.994000000    -2.267000000    -0.733000000
O     4.163000000     3.837000000    -3.279000000
H     4.853000000     3.194000000    -3.116000000
H     4.609000000     4.683000000    -3.234000000
O     8.012000000    -0.463000000     2.060000000
H     8.893000000    -0.662000000     1.743000000
H     7.429000000    -0.911000000     1.447000000
O     3.534000000    -1.439000000     5.033000000
H     4.420000000    -1.575000000     5.370000000
H     3.602000000    -0.650000000     4.495000000
O     0.112000000     1.843000000     5.127000000
H    -0.335000000     2.690000000     5.133000000
H     0.842000000     1.962000000     4.519000000
O    -5.357000000     2.632000000     2.196000000
H    -4.663000000     2.047000000     1.890000000
H    -6.089000000     2.049000000     2.398000000
O    -6.785000000    -1.751000000    -3.077000000
H    -6.010000000    -1.453000000    -2.600000000
H    -7.515000000    -1.563000000    -2.488000000
O    -6.901000000    -3.907000000     0.101000000
H    -6.651000000    -2.985000000     0.035000000
H    -6.125000000    -4.387000000    -0.187000000
O    -3.408000000    -3.965000000     2.303000000
H    -2.629000000    -3.453000000     2.522000000
H    -4.106000000    -3.315000000     2.218000000
O     3.729000000    -5.557000000     1.475000000
H     3.619000000    -6.498000000     1.613000000
H     2.839000000    -5.225000000     1.357000000
O    -1.375000000     3.924000000     4.311000000
H    -2.260000000     4.288000000     4.281000000
H    -0.929000000     4.316000000     3.561000000
O    -2.670000000     5.521000000    -1.705000000
H    -1.828000000     5.212000000    -2.038000000
H    -2.782000000     5.062000000    -0.873000000
O    -6.484000000    -1.100000000    -0.120000000
H    -6.938000000    -0.267000000     0.007000000
H    -5.589000000    -0.933000000     0.176000000
O     4.208000000     0.981000000     3.650000000
H     4.144000000     1.143000000     2.709000000
H     5.054000000     1.354000000     3.900000000
O     3.503000000     2.166000000     6.380000000
H     3.416000000     1.972000000     5.447000000
H     4.408000000     1.933000000     6.590000000
O    -4.041000000     4.625000000     4.429000000
H    -4.904000000     4.918000000     4.722000000
H    -4.211000000     3.801000000     3.972000000
O    -3.908000000     1.996000000    -2.858000000
H    -3.990000000     2.719000000    -3.480000000
H    -4.611000000     2.144000000    -2.225000000
O    -7.048000000     0.478000000     2.617000000
H    -7.941000000     0.394000000     2.952000000
H    -6.679000000    -0.402000000     2.695000000
O     1.010000000    -4.835000000     1.249000000
H     0.650000000    -4.298000000     0.543000000
H     0.863000000    -4.318000000     2.041000000
O     0.027000000    -0.205000000     6.911000000
H     0.040000000     0.459000000     6.222000000
H     0.838000000    -0.060000000     7.399000000
