161
-3046.69100
C    -1.221000000     0.791000000     0.040000000
H    -2.172000000     1.317000000     0.078000000
C    -1.129000000    -0.488000000    -0.426000000
H    -2.017000000    -0.999000000    -0.789000000
C     0.104000000    -1.191000000    -0.469000000
C     0.216000000    -2.580000000    -0.958000000
H    -0.303000000    -2.670000000    -1.915000000
H     1.260000000    -2.888000000    -1.039000000
H    -0.119000000    -3.341000000    -0.250000000
C     1.230000000    -0.500000000     0.132000000
H     2.192000000    -0.983000000     0.278000000
C     1.140000000     0.835000000     0.554000000
H     2.016000000     1.241000000     1.053000000
C    -0.075000000     1.505000000     0.532000000
C    -0.317000000     2.884000000     0.972000000
O     0.594000000     3.639000000     1.182000000
O    -1.401000000     3.431000000     1.022000000
O     4.374000000    -3.552000000    -5.104000000
H     3.439000000    -3.503000000    -4.907000000
H     4.805000000    -3.325000000    -4.280000000
O    -3.159000000     6.628000000     1.433000000
H    -3.070000000     7.317000000     0.775000000
H    -2.260000000     6.424000000     1.691000000
O     2.791000000     2.408000000    -4.458000000
H     2.525000000     1.661000000    -3.921000000
H     3.644000000     2.157000000    -4.812000000
O     3.127000000     7.560000000     2.108000000
H     3.601000000     8.071000000     1.452000000
H     2.276000000     7.992000000     2.179000000
O     2.660000000     0.102000000    -2.922000000
H     3.363000000    -0.503000000    -2.684000000
H     1.966000000    -0.075000000    -2.287000000
O    -4.426000000    -0.246000000     0.914000000
H    -4.277000000    -1.190000000     0.968000000
H    -4.378000000    -0.050000000    -0.022000000
O    -0.285000000    -6.230000000    -0.622000000
H     0.534000000    -6.595000000    -0.955000000
H    -0.960000000    -6.834000000    -0.930000000
O    -4.672000000     3.203000000    -2.453000000
H    -3.933000000     3.358000000    -1.865000000
H    -5.283000000     3.915000000    -2.262000000
O     0.438000000     8.600000000     1.812000000
H    -0.164000000     9.232000000     1.417000000
H    -0.032000000     7.767000000     1.776000000
O     1.615000000    -3.264000000    -4.262000000
H     1.846000000    -3.075000000    -3.353000000
H     1.054000000    -4.038000000    -4.210000000
O    -1.464000000     5.327000000    -0.925000000
H    -1.553000000     4.765000000    -0.155000000
H    -0.844000000     4.865000000    -1.489000000
O     5.534000000    -3.326000000     3.274000000
H     5.038000000    -2.856000000     2.604000000
H     6.393000000    -3.473000000     2.877000000
O     1.491000000     1.680000000     4.176000000
H     0.651000000     1.862000000     4.598000000
H     1.839000000     0.925000000     4.651000000
O     3.630000000    -4.388000000    -1.681000000
H     4.017000000    -5.262000000    -1.627000000
H     3.355000000    -4.192000000    -0.785000000
O     2.535000000    -4.391000000     0.975000000
H     2.359000000    -3.623000000     1.520000000
H     2.396000000    -5.136000000     1.560000000
O     5.294000000    -0.013000000     3.770000000
H     4.884000000    -0.593000000     3.130000000
H     5.273000000     0.851000000     3.359000000
O     0.034000000    -8.556000000     1.109000000
H    -0.091000000    -8.315000000     2.026000000
H     0.148000000    -7.721000000     0.655000000
O    -1.387000000     4.201000000     3.927000000
H    -1.756000000     3.914000000     3.092000000
H    -1.928000000     3.770000000     4.589000000
O    -4.654000000    -0.937000000    -3.695000000
H    -3.826000000    -0.696000000    -4.110000000
H    -4.765000000    -1.865000000    -3.904000000
O    -6.522000000    -0.394000000     3.025000000
H    -6.009000000    -0.550000000     2.232000000
H    -6.435000000     0.546000000     3.185000000
O    -2.233000000     7.988000000    -0.915000000
H    -1.933000000     7.082000000    -0.985000000
H    -3.108000000     7.981000000    -1.302000000
O     2.329000000     5.392000000    -0.181000000
H     2.801000000     5.696000000     0.595000000
H     1.484000000     5.093000000     0.154000000
O    -1.640000000    -1.934000000    -4.528000000
H    -0.949000000    -1.272000000    -4.542000000
H    -1.562000000    -2.381000000    -5.371000000
O     4.768000000     3.792000000     4.386000000
H     4.344000000     4.582000000     4.721000000
H     4.375000000     3.657000000     3.524000000
O     0.657000000    -5.804000000    -3.840000000
H     1.049000000    -6.153000000    -3.039000000
H    -0.281000000    -5.972000000    -3.740000000
O     2.754000000     3.335000000     2.468000000
H     1.931000000     3.467000000     1.998000000
H     2.538000000     2.712000000     3.161000000
O     3.698000000     3.496000000    -1.892000000
H     3.177000000     4.025000000    -1.288000000
H     3.113000000     3.332000000    -2.632000000
O     0.487000000     4.668000000    -2.671000000
H     0.353000000     5.609000000    -2.778000000
H     1.422000000     4.539000000    -2.830000000
O    -5.194000000     5.426000000     3.167000000
H    -4.623000000     4.894000000     2.613000000
H    -5.108000000     6.313000000     2.818000000
O    -2.739000000     2.448000000    -4.431000000
H    -2.749000000     1.491000000    -4.440000000
H    -3.342000000     2.687000000    -3.727000000
O    -4.839000000     4.986000000     0.040000000
H    -4.267000000     5.633000000     0.452000000
H    -4.554000000     4.148000000     0.405000000
O     4.601000000    -1.666000000    -2.212000000
H     4.429000000    -2.605000000    -2.146000000
H     5.453000000    -1.609000000    -2.645000000
O     1.428000000     4.607000000     4.830000000
H     0.503000000     4.455000000     4.633000000
H     1.803000000     4.904000000     4.001000000
O    -0.887000000    -0.671000000     2.997000000
H    -1.104000000    -0.432000000     2.096000000
H    -0.052000000    -0.234000000     3.166000000
O     2.959000000    -0.444000000     5.001000000
H     3.153000000    -1.339000000     5.280000000
H     3.686000000    -0.210000000     4.424000000
O     5.111000000    -1.770000000     1.134000000
H     5.965000000    -1.339000000     1.153000000
H     4.904000000    -1.852000000     0.203000000
O    -3.515000000     2.424000000     2.121000000
H    -3.692000000     1.591000000     1.684000000
H    -2.659000000     2.693000000     1.787000000
O    -3.245000000    -5.009000000     0.643000000
H    -3.668000000    -5.475000000     1.364000000
H    -2.399000000    -5.443000000     0.540000000
O     1.669000000    -2.329000000     2.541000000
H     0.938000000    -1.716000000     2.615000000
H     1.956000000    -2.469000000     3.443000000
O    -0.350000000    -4.827000000     2.752000000
H     0.027000000    -4.368000000     2.001000000
H     0.333000000    -5.438000000     3.028000000
O    -0.510000000     6.005000000     2.075000000
H    -0.750000000     5.748000000     2.965000000
H    -0.384000000     5.176000000     1.612000000
O    -5.576000000     1.995000000     3.936000000
H    -5.661000000     2.746000000     4.524000000
H    -4.831000000     2.212000000     3.376000000
O    -4.133000000    -2.738000000     1.821000000
H    -4.470000000    -3.103000000     2.640000000
H    -3.706000000    -3.476000000     1.387000000
O     4.960000000     1.461000000    -0.804000000
H     4.853000000     0.712000000    -1.390000000
H     4.507000000     2.178000000    -1.247000000
O     2.392000000    -6.938000000    -0.738000000
H     2.329000000    -6.050000000    -0.387000000
H     3.303000000    -7.191000000    -0.589000000
O    -5.266000000     0.603000000    -1.562000000
H    -5.213000000     1.488000000    -1.924000000
H    -5.221000000     0.029000000    -2.327000000
O     5.367000000     2.100000000     1.858000000
H     5.326000000     1.668000000     1.005000000
H     4.575000000     2.637000000     1.893000000
O    -2.239000000    -3.305000000     4.233000000
H    -2.047000000    -2.571000000     3.649000000
H    -1.735000000    -4.035000000     3.874000000
