161
-3038.78157
C    -0.354000000     1.310000000    -0.509000000
H    -0.701000000     2.241000000    -0.951000000
C    -1.204000000     0.188000000    -0.532000000
H    -2.196000000     0.330000000    -0.955000000
C    -0.739000000    -0.995000000     0.010000000
C    -1.636000000    -2.162000000     0.105000000
H    -2.685000000    -1.878000000    -0.001000000
H    -1.355000000    -2.850000000    -0.695000000
H    -1.612000000    -2.599000000     1.105000000
C     0.529000000    -1.114000000     0.565000000
H     0.932000000    -2.029000000     0.992000000
C     1.351000000     0.016000000     0.572000000
H     2.317000000    -0.105000000     1.056000000
C     0.982000000     1.251000000    -0.060000000
C     1.878000000     2.488000000    -0.215000000
O     3.039000000     2.374000000     0.187000000
O     1.462000000     3.535000000    -0.674000000
O     7.074000000     2.055000000     1.410000000
H     6.230000000     2.413000000     1.685000000
H     7.374000000     2.648000000     0.722000000
O     0.719000000     7.341000000    -2.872000000
H     1.033000000     7.964000000    -3.528000000
H     1.376000000     6.646000000    -2.867000000
O     4.627000000     7.851000000    -1.593000000
H     4.038000000     7.195000000    -1.967000000
H     4.044000000     8.512000000    -1.221000000
O     1.823000000    -3.078000000    -1.456000000
H     1.303000000    -3.826000000    -1.164000000
H     1.500000000    -2.343000000    -0.934000000
O    -2.036000000     5.732000000    -3.508000000
H    -1.693000000     5.083000000    -2.893000000
H    -1.296000000     6.315000000    -3.679000000
O     5.399000000    -0.335000000    -2.986000000
H     5.419000000     0.204000000    -3.777000000
H     4.788000000    -1.043000000    -3.194000000
O    -4.783000000     0.455000000    -0.108000000
H    -4.422000000     1.333000000    -0.224000000
H    -4.571000000     0.226000000     0.797000000
O     4.653000000    -4.753000000     1.664000000
H     4.139000000    -5.139000000     0.954000000
H     5.509000000    -4.581000000     1.272000000
O     3.023000000     1.449000000    -4.697000000
H     3.842000000     1.082000000    -5.030000000
H     3.271000000     1.889000000    -3.884000000
O     0.604000000    -0.073000000    -4.128000000
H     1.329000000     0.372000000    -4.567000000
H     0.723000000     0.132000000    -3.200000000
O    -1.894000000     2.027000000    -4.097000000
H    -1.349000000     2.689000000    -3.672000000
H    -1.297000000     1.298000000    -4.266000000
O    -2.386000000     6.446000000     0.154000000
H    -2.170000000     7.359000000     0.344000000
H    -1.540000000     5.997000000     0.140000000
O     5.151000000    -0.732000000     2.433000000
H     4.344000000    -1.235000000     2.536000000
H     5.033000000    -0.254000000     1.612000000
O     2.020000000     0.268000000     3.670000000
H     1.928000000     1.199000000     3.467000000
H     2.854000000     0.017000000     3.272000000
O     4.560000000     3.136000000     1.995000000
H     4.007000000     2.830000000     1.276000000
H     4.668000000     4.073000000     1.832000000
O     4.348000000    -0.571000000     5.840000000
H     3.504000000    -0.924000000     5.558000000
H     4.742000000    -1.276000000     6.354000000
O     2.337000000     5.452000000    -3.989000000
H     3.131000000     5.231000000    -4.476000000
H     1.620000000     5.165000000    -4.554000000
O    -0.111000000    -4.255000000    -5.997000000
H    -0.627000000    -3.951000000    -5.250000000
H    -0.762000000    -4.504000000    -6.653000000
O    -3.787000000    -5.015000000     0.395000000
H    -2.912000000    -5.398000000     0.457000000
H    -3.808000000    -4.605000000    -0.470000000
O    -4.220000000    -3.219000000     2.763000000
H    -4.059000000    -3.600000000     1.900000000
H    -3.366000000    -3.240000000     3.196000000
O     0.474000000    -1.644000000     4.521000000
H     1.130000000    -2.333000000     4.410000000
H     0.954000000    -0.830000000     4.372000000
O    -4.935000000    -1.024000000    -2.493000000
H    -4.960000000    -0.398000000    -1.770000000
H    -5.748000000    -0.869000000    -2.973000000
O    -3.391000000    -3.545000000    -2.096000000
H    -4.038000000    -2.859000000    -2.261000000
H    -2.588000000    -3.220000000    -2.504000000
O     0.389000000    -5.404000000    -0.445000000
H     0.046000000    -6.024000000    -1.089000000
H    -0.213000000    -5.472000000     0.296000000
O     3.730000000     2.855000000    -2.532000000
H     3.604000000     2.642000000    -1.607000000
H     3.667000000     3.810000000    -2.568000000
O     7.185000000    -0.882000000    -0.097000000
H     7.783000000    -0.441000000     0.506000000
H     6.314000000    -0.593000000     0.175000000
O     0.098000000     3.426000000    -2.957000000
H     0.594000000     3.554000000    -3.766000000
H     0.713000000     3.658000000    -2.261000000
O     3.005000000    -6.463000000    -0.321000000
H     3.298000000    -6.305000000    -1.219000000
H     2.150000000    -6.036000000    -0.270000000
O    -4.407000000    -0.184000000     2.476000000
H    -3.478000000    -0.331000000     2.294000000
H    -4.602000000    -0.767000000     3.210000000
O    -1.012000000    -2.401000000    -3.152000000
H    -0.590000000    -1.623000000    -3.516000000
H    -0.317000000    -2.849000000    -2.671000000
O     3.223000000    -2.638000000    -3.738000000
H     2.782000000    -2.628000000    -2.888000000
H     3.585000000    -3.521000000    -3.809000000
O     3.382000000     5.418000000    -0.803000000
H     3.975000000     5.410000000    -0.051000000
H     2.647000000     4.868000000    -0.533000000
O    -6.046000000     3.357000000    -1.112000000
H    -5.751000000     4.189000000    -1.481000000
H    -5.829000000     3.417000000    -0.182000000
O    -1.269000000     2.261000000     2.096000000
H    -1.137000000     1.517000000     2.683000000
H    -1.367000000     1.868000000     1.229000000
O    -1.544000000    -0.072000000     3.343000000
H    -2.175000000    -0.380000000     3.993000000
H    -0.895000000    -0.774000000     3.287000000
O    -3.091000000     3.118000000    -0.420000000
H    -2.575000000     3.920000000    -0.505000000
H    -3.820000000     3.362000000     0.150000000
O     4.990000000     1.782000000     4.312000000
H     4.847000000     0.933000000     3.894000000
H     4.685000000     2.420000000     3.667000000
O    -1.789000000    -3.629000000     4.068000000
H    -1.732000000    -2.897000000     4.682000000
H    -1.588000000    -4.401000000     4.597000000
O    -6.621000000    -2.472000000     0.418000000
H    -6.570000000    -3.305000000    -0.051000000
H    -5.962000000    -1.920000000    -0.004000000
O    -0.373000000     4.516000000     1.058000000
H     0.339000000     4.264000000     0.471000000
H    -0.668000000     3.692000000     1.445000000
O     4.663000000     0.329000000     0.120000000
H     3.911000000     0.921000000     0.092000000
H     5.058000000     0.403000000    -0.749000000
O    -1.366000000    -5.663000000     1.778000000
H    -1.323000000    -4.885000000     2.334000000
H    -0.845000000    -6.318000000     2.242000000
O     1.746000000     3.259000000     4.132000000
H     2.140000000     4.050000000     3.765000000
H     0.806000000     3.368000000     3.983000000
O     3.190000000    -2.650000000     2.814000000
H     2.684000000    -3.110000000     3.484000000
H     3.744000000    -3.326000000     2.426000000
O    -6.920000000    -2.628000000     3.028000000
H    -7.059000000    -2.841000000     2.106000000
H    -5.970000000    -2.671000000     3.144000000
O     6.302000000     2.140000000    -4.363000000
H     5.537000000     2.486000000    -3.904000000
H     6.984000000     2.797000000    -4.219000000
O    -4.860000000     2.000000000    -3.312000000
H    -5.089000000     2.496000000    -2.526000000
H    -3.903000000     2.007000000    -3.329000000
O    -3.553000000    -1.132000000    -4.973000000
H    -4.139000000    -1.699000000    -5.475000000
H    -3.865000000    -1.205000000    -4.071000000
