161
-3036.56005
C    -0.362000000     1.266000000    -0.609000000
H    -0.691000000     2.187000000    -1.084000000
C    -1.254000000     0.265000000    -0.129000000
H    -2.330000000     0.413000000    -0.159000000
C    -0.740000000    -0.920000000     0.394000000
C    -1.747000000    -1.972000000     0.731000000
H    -2.153000000    -2.451000000    -0.163000000
H    -1.410000000    -2.780000000     1.384000000
H    -2.610000000    -1.585000000     1.275000000
C     0.637000000    -1.005000000     0.537000000
H     0.948000000    -2.000000000     0.842000000
C     1.517000000     0.034000000     0.267000000
H     2.581000000    -0.114000000     0.434000000
C     1.026000000     1.176000000    -0.383000000
C     1.928000000     2.236000000    -0.928000000
O     3.124000000     2.216000000    -0.627000000
O     1.538000000     3.042000000    -1.778000000
O     7.354000000     3.261000000    -1.397000000
H     7.110000000     3.119000000    -0.483000000
H     6.665000000     2.825000000    -1.899000000
O    -4.356000000    -0.473000000    -4.655000000
H    -3.438000000    -0.257000000    -4.491000000
H    -4.356000000    -1.419000000    -4.805000000
O     3.127000000     6.483000000    -1.874000000
H     3.198000000     7.412000000    -1.654000000
H     3.345000000     6.440000000    -2.805000000
O     6.302000000     5.685000000    -2.559000000
H     5.761000000     4.959000000    -2.868000000
H     6.912000000     5.283000000    -1.941000000
O     5.655000000     6.403000000     1.232000000
H     5.090000000     5.661000000     1.017000000
H     6.301000000     6.044000000     1.840000000
O     3.109000000    -4.221000000    -2.650000000
H     2.229000000    -4.228000000    -2.273000000
H     3.682000000    -4.002000000    -1.915000000
O    -3.052000000     3.832000000    -3.448000000
H    -2.379000000     3.326000000    -3.904000000
H    -2.598000000     4.211000000    -2.696000000
O     5.777000000     0.349000000    -4.064000000
H     5.659000000     0.937000000    -3.317000000
H     5.052000000    -0.271000000    -3.997000000
O    -4.593000000     0.644000000     2.349000000
H    -4.738000000     1.447000000     2.850000000
H    -3.688000000     0.711000000     2.047000000
O    -4.068000000    -0.353000000     5.425000000
H    -4.969000000    -0.319000000     5.745000000
H    -3.836000000    -1.281000000     5.461000000
O     2.897000000     1.614000000    -3.886000000
H     2.553000000     0.735000000    -4.044000000
H     2.339000000     1.968000000    -3.193000000
O    -1.589000000    -0.077000000    -3.200000000
H    -1.505000000     0.190000000    -2.285000000
H    -0.896000000    -0.726000000    -3.324000000
O    -1.918000000     4.823000000    -1.147000000
H    -1.038000000     5.006000000    -0.816000000
H    -2.232000000     5.668000000    -1.471000000
O     5.169000000    -2.395000000     2.856000000
H     6.126000000    -2.384000000     2.865000000
H     4.942000000    -3.283000000     2.581000000
O     3.079000000    -0.368000000     3.525000000
H     3.224000000     0.328000000     2.883000000
H     3.704000000    -1.051000000     3.283000000
O     6.674000000     2.148000000     1.032000000
H     5.754000000     1.936000000     1.187000000
H     7.007000000     2.412000000     1.890000000
O     0.707000000    -0.812000000     4.944000000
H     1.382000000    -0.470000000     4.358000000
H     1.195000000    -1.257000000     5.637000000
O     0.919000000     5.593000000    -4.956000000
H     0.701000000     6.477000000    -5.252000000
H     1.710000000     5.365000000    -5.444000000
O    -3.783000000    -4.923000000     3.145000000
H    -4.472000000    -5.489000000     2.798000000
H    -2.992000000    -5.462000000     3.114000000
O     0.653000000    -3.759000000     3.226000000
H     1.057000000    -4.193000000     3.977000000
H     0.491000000    -2.864000000     3.524000000
O    -4.387000000    -3.309000000    -1.724000000
H    -4.739000000    -2.420000000    -1.679000000
H    -4.365000000    -3.605000000    -0.813000000
O    -2.045000000    -4.996000000    -3.379000000
H    -2.934000000    -4.968000000    -3.025000000
H    -2.065000000    -5.708000000    -4.018000000
O    -2.219000000    -2.446000000     5.498000000
H    -1.982000000    -3.049000000     6.203000000
H    -1.727000000    -1.648000000     5.691000000
O     0.239000000    -4.574000000    -1.669000000
H     0.154000000    -5.167000000    -0.922000000
H    -0.489000000    -4.809000000    -2.245000000
O     3.829000000     4.786000000     0.057000000
H     3.348000000     4.004000000    -0.214000000
H     3.832000000     5.346000000    -0.720000000
O     3.631000000    -3.623000000     0.081000000
H     4.383000000    -3.041000000     0.187000000
H     3.567000000    -4.087000000     0.916000000
O    -0.158000000     3.392000000    -3.681000000
H     0.227000000     4.150000000    -4.120000000
H     0.430000000     3.216000000    -2.946000000
O     0.316000000    -2.218000000    -3.278000000
H     1.123000000    -1.819000000    -2.953000000
H     0.209000000    -3.007000000    -2.746000000
O    -1.363000000     2.361000000    -6.166000000
H    -0.418000000     2.396000000    -6.315000000
H    -1.451000000     2.129000000    -5.241000000
O     2.423000000    -0.992000000    -2.455000000
H     2.555000000    -0.660000000    -1.567000000
H     3.144000000    -1.607000000    -2.591000000
O    -1.608000000     3.022000000     3.061000000
H    -2.041000000     3.011000000     2.207000000
H    -1.481000000     2.099000000     3.277000000
O    -1.760000000     0.630000000     4.412000000
H    -1.124000000    -0.056000000     4.618000000
H    -2.612000000     0.211000000     4.537000000
O    -3.468000000     4.076000000     1.056000000
H    -3.078000000     4.191000000     0.190000000
H    -3.215000000     4.863000000     1.539000000
O    -1.188000000    -6.003000000     4.337000000
H    -0.706000000    -5.359000000     3.818000000
H    -0.925000000    -5.828000000     5.240000000
O    -7.045000000     0.607000000     0.591000000
H    -6.305000000     1.102000000     0.240000000
H    -6.914000000     0.620000000     1.539000000
O    -5.706000000    -3.545000000     4.938000000
H    -5.655000000    -4.136000000     5.689000000
H    -4.933000000    -3.755000000     4.415000000
O     0.744000000     5.524000000    -1.031000000
H     0.796000000     4.736000000    -1.572000000
H     1.639000000     5.864000000    -1.016000000
O     4.818000000    -0.125000000    -0.449000000
H     4.663000000     0.820000000    -0.443000000
H     4.838000000    -0.370000000     0.476000000
O     0.951000000    -5.325000000     0.870000000
H     0.546000000    -4.660000000     1.427000000
H     1.538000000    -5.804000000     1.456000000
O     4.134000000     2.063000000     1.960000000
H     3.671000000     2.752000000     2.436000000
H     3.796000000     2.120000000     1.066000000
O     3.979000000    -4.870000000     2.708000000
H     3.123000000    -4.795000000     3.129000000
H     4.347000000    -5.683000000     3.055000000
O    -5.455000000    -3.805000000     1.223000000
H    -5.710000000    -3.087000000     1.803000000
H    -4.803000000    -4.296000000     1.723000000
O     4.697000000     3.216000000    -2.850000000
H     4.069000000     3.453000000    -2.168000000
H     4.158000000     2.874000000    -3.564000000
O    -5.733000000    -0.811000000    -1.376000000
H    -6.154000000    -0.490000000    -0.578000000
H    -5.158000000    -0.096000000    -1.648000000
O    -4.082000000    -3.048000000    -4.639000000
H    -3.229000000    -2.997000000    -4.207000000
H    -4.691000000    -3.280000000    -3.938000000
O     3.351000000     4.761000000     2.959000000
H     3.458000000     5.598000000     3.412000000
H     2.491000000     4.446000000     3.239000000
O    -6.134000000    -1.737000000     2.996000000
H    -6.113000000    -0.785000000     3.091000000
H    -5.822000000    -2.069000000     3.838000000
O    -5.230000000     1.892000000    -0.928000000
H    -4.933000000     2.028000000    -1.828000000
H    -5.316000000     2.775000000    -0.569000000
