161
-3048.83300
C    -0.194000000     1.404000000    -0.350000000
H    -0.455000000     2.449000000    -0.499000000
C    -1.112000000     0.402000000    -0.648000000
H    -2.013000000     0.570000000    -1.233000000
C    -0.770000000    -0.903000000    -0.338000000
C    -1.795000000    -1.975000000    -0.384000000
H    -2.274000000    -2.000000000     0.596000000
H    -2.516000000    -1.845000000    -1.194000000
H    -1.311000000    -2.926000000    -0.616000000
C     0.461000000    -1.224000000     0.238000000
H     0.742000000    -2.256000000     0.432000000
C     1.360000000    -0.194000000     0.566000000
H     2.357000000    -0.449000000     0.917000000
C     1.030000000     1.120000000     0.334000000
C     1.942000000     2.275000000     0.617000000
O     3.008000000     2.131000000     1.139000000
O     1.542000000     3.419000000     0.425000000
O     6.821000000     3.209000000     1.435000000
H     5.989000000     3.237000000     0.962000000
H     6.624000000     3.594000000     2.289000000
O    -3.285000000    -2.006000000    -4.881000000
H    -3.850000000    -1.334000000    -4.499000000
H    -3.256000000    -2.699000000    -4.221000000
O     1.735000000     6.768000000    -3.114000000
H     2.673000000     6.880000000    -2.960000000
H     1.503000000     5.982000000    -2.620000000
O    -0.388000000    -3.196000000    -5.050000000
H    -1.249000000    -2.827000000    -4.850000000
H     0.010000000    -3.353000000    -4.194000000
O     0.451000000     2.000000000    -4.320000000
H     0.021000000     2.840000000    -4.160000000
H     0.850000000     2.096000000    -5.184000000
O     1.460000000     8.788000000     0.520000000
H     1.622000000     7.845000000     0.482000000
H     0.574000000     8.892000000     0.171000000
O     3.651000000    -3.969000000    -1.061000000
H     2.973000000    -4.333000000    -0.492000000
H     4.349000000    -4.624000000    -1.052000000
O     4.886000000    -1.497000000    -0.326000000
H     5.407000000    -1.301000000    -1.106000000
H     4.209000000    -2.097000000    -0.636000000
O    -4.411000000     1.632000000     1.320000000
H    -4.090000000     2.440000000     0.917000000
H    -3.629000000     1.223000000     1.691000000
O     4.836000000    -2.357000000     2.647000000
H     5.760000000    -2.112000000     2.692000000
H     4.524000000    -1.967000000     1.830000000
O    -2.648000000     2.110000000    -4.813000000
H    -2.366000000     1.797000000    -5.673000000
H    -3.047000000     1.344000000    -4.399000000
O     4.733000000     3.149000000     3.335000000
H     4.635000000     4.027000000     2.967000000
H     4.152000000     2.602000000     2.806000000
O     3.359000000     1.168000000    -1.902000000
H     3.912000000     0.564000000    -1.406000000
H     3.966000000     1.828000000    -2.237000000
O     1.438000000    -0.706000000    -2.791000000
H     1.668000000     0.215000000    -2.665000000
H     0.577000000    -0.796000000    -2.383000000
O    -4.098000000     3.240000000    -2.600000000
H    -3.382000000     2.886000000    -3.129000000
H    -3.787000000     4.101000000    -2.322000000
O     2.005000000     4.715000000     2.681000000
H     1.810000000     4.384000000     1.805000000
H     1.610000000     4.074000000     3.273000000
O    -0.089000000    -4.339000000     2.093000000
H    -0.018000000    -5.046000000     2.734000000
H    -0.094000000    -3.539000000     2.618000000
O     1.392000000     2.110000000     3.809000000
H     1.910000000     1.503000000     3.280000000
H     1.593000000     1.870000000     4.714000000
O    -2.491000000    -5.778000000    -0.503000000
H    -1.893000000    -6.012000000     0.207000000
H    -3.357000000    -5.780000000    -0.097000000
O    -6.031000000    -2.800000000     3.297000000
H    -5.435000000    -3.536000000     3.154000000
H    -5.454000000    -2.057000000     3.474000000
O    -5.062000000     0.000000000    -3.777000000
H    -5.039000000     0.082000000    -2.824000000
H    -5.748000000     0.607000000    -4.053000000
O    -1.356000000    -0.375000000    -3.912000000
H    -0.660000000     0.208000000    -4.215000000
H    -1.623000000    -0.856000000    -4.696000000
O    -0.987000000    -5.830000000    -3.100000000
H    -0.082000000    -6.125000000    -3.208000000
H    -1.194000000    -6.023000000    -2.186000000
O     1.909000000    -5.400000000     0.330000000
H     1.586000000    -6.275000000     0.117000000
H     1.191000000    -4.991000000     0.815000000
O     4.539000000     4.420000000     0.154000000
H     4.557000000     5.374000000     0.227000000
H     3.666000000     4.173000000     0.459000000
O     1.674000000     4.068000000    -2.111000000
H     1.829000000     3.492000000    -2.860000000
H     1.731000000     3.492000000    -1.349000000
O     3.454000000    -6.726000000     2.098000000
H     3.002000000    -6.215000000     1.426000000
H     2.955000000    -7.540000000     2.156000000
O    -4.088000000    -0.863000000     3.837000000
H    -3.343000000    -0.351000000     3.524000000
H    -3.770000000    -1.285000000     4.635000000
O     1.226000000    -3.283000000    -2.702000000
H     1.462000000    -2.355000000    -2.713000000
H     1.978000000    -3.717000000    -2.300000000
O    -2.929000000    -3.859000000    -2.849000000
H    -2.835000000    -3.432000000    -1.998000000
H    -2.314000000    -4.592000000    -2.818000000
O    -1.883000000     0.221000000     2.853000000
H    -1.767000000     0.546000000     1.960000000
H    -1.349000000    -0.573000000     2.890000000
O    -0.212000000    -1.847000000     3.519000000
H     0.733000000    -1.974000000     3.435000000
H    -0.374000000    -1.875000000     4.462000000
O    -2.952000000     5.538000000    -1.412000000
H    -2.209000000     5.777000000    -1.966000000
H    -3.380000000     6.370000000    -1.213000000
O     3.333000000    -0.068000000     4.153000000
H     3.762000000    -0.755000000     4.663000000
H     3.856000000    -0.002000000     3.354000000
O    -6.436000000    -2.692000000    -0.791000000
H    -6.018000000    -1.871000000    -1.049000000
H    -6.978000000    -2.932000000    -1.543000000
O     0.906000000     6.071000000     0.057000000
H     1.058000000     5.169000000    -0.225000000
H     0.516000000     6.497000000    -0.705000000
O     4.100000000     7.291000000    -2.164000000
H     4.751000000     7.991000000    -2.122000000
H     3.928000000     7.069000000    -1.249000000
O    -3.025000000     3.963000000     1.103000000
H    -3.044000000     4.324000000     0.217000000
H    -2.099000000     3.980000000     1.348000000
O     6.188000000     0.896000000     5.292000000
H     5.625000000     1.353000000     5.917000000
H     5.964000000     1.278000000     4.443000000
O     4.835000000     0.432000000     1.681000000
H     4.163000000     0.944000000     1.231000000
H     5.199000000    -0.136000000     1.002000000
O    -0.687000000     3.514000000     2.117000000
H    -0.583000000     2.799000000     2.745000000
H     0.169000000     3.588000000     1.695000000
O    -4.826000000    -6.058000000     1.024000000
H    -5.684000000    -5.663000000     0.868000000
H    -4.526000000    -5.663000000     1.843000000
O     2.319000000    -3.363000000     3.822000000
H     2.169000000    -3.002000000     4.696000000
H     3.219000000    -3.115000000     3.612000000
O     7.354000000     1.644000000    -0.699000000
H     7.289000000     0.703000000    -0.536000000
H     7.300000000     2.042000000     0.170000000
O     5.463000000     3.060000000    -1.900000000
H     5.148000000     3.627000000    -1.196000000
H     6.294000000     2.713000000    -1.575000000
O    -5.306000000     1.132000000    -1.312000000
H    -5.063000000     1.314000000    -0.404000000
H    -4.686000000     1.642000000    -1.833000000
O    -4.374000000    -4.952000000     3.389000000
H    -3.506000000    -4.846000000     3.776000000
H    -4.808000000    -5.598000000     3.946000000
O    -0.443000000     6.873000000     2.389000000
H    -0.928000000     7.617000000     2.033000000
H     0.056000000     6.534000000     1.646000000
