161
-3050.57421
C    -0.647000000    -1.147000000     0.684000000
H    -0.965000000    -2.094000000     1.112000000
C     0.575000000    -1.194000000    -0.064000000
H     1.124000000    -2.126000000    -0.173000000
C     1.093000000    -0.004000000    -0.661000000
C     2.411000000     0.037000000    -1.417000000
H     2.671000000     1.078000000    -1.619000000
H     3.236000000    -0.550000000    -1.006000000
H     2.128000000    -0.420000000    -2.368000000
C     0.467000000     1.201000000    -0.348000000
H     0.835000000     2.188000000    -0.618000000
C    -0.784000000     1.160000000     0.400000000
H    -1.299000000     2.058000000     0.731000000
C    -1.396000000     0.000000000     0.799000000
C    -2.809000000    -0.023000000     1.359000000
O    -3.526000000     0.951000000     1.381000000
O    -3.117000000    -1.116000000     1.815000000
O    -3.301000000     1.884000000    -2.562000000
H    -2.776000000     1.141000000    -2.266000000
H    -3.986000000     1.973000000    -1.899000000
O     4.301000000    -0.793000000    -4.116000000
H     3.410000000    -0.663000000    -3.791000000
H     4.471000000    -1.725000000    -3.980000000
O     6.327000000    -2.026000000     0.118000000
H     7.218000000    -2.133000000     0.450000000
H     5.850000000    -1.615000000     0.839000000
O     3.760000000     3.520000000     0.999000000
H     4.573000000     3.014000000     0.994000000
H     3.127000000     2.950000000     1.436000000
O     6.483000000     2.169000000     0.284000000
H     6.390000000     1.495000000    -0.389000000
H     7.125000000     2.780000000    -0.078000000
O     4.019000000     0.775000000     2.053000000
H     4.971000000     0.681000000     2.024000000
H     3.686000000    -0.085000000     1.794000000
O    -3.695000000     2.446000000     3.401000000
H    -3.484000000     2.051000000     2.555000000
H    -2.850000000     2.734000000     3.748000000
O    -5.102000000     1.286000000     5.238000000
H    -4.848000000     1.830000000     4.493000000
H    -5.437000000     0.481000000     4.844000000
O     0.366000000     0.855000000     3.926000000
H    -0.036000000     0.523000000     3.124000000
H     0.980000000     0.169000000     4.188000000
O    -2.834000000     4.713000000     0.840000000
H    -2.614000000     5.008000000    -0.043000000
H    -2.372000000     5.321000000     1.418000000
O    -2.872000000    -2.955000000    -1.782000000
H    -3.196000000    -3.185000000    -0.911000000
H    -3.641000000    -3.025000000    -2.349000000
O    -6.191000000    -0.331000000    -1.288000000
H    -5.863000000     0.531000000    -1.032000000
H    -6.416000000    -0.757000000    -0.461000000
O     6.209000000    -0.545000000     2.437000000
H     6.158000000    -0.957000000     3.299000000
H     7.118000000    -0.254000000     2.364000000
O     0.226000000    -5.223000000    -2.922000000
H     0.311000000    -4.457000000    -3.490000000
H    -0.096000000    -5.915000000    -3.500000000
O    -7.938000000    -2.509000000     1.189000000
H    -7.318000000    -3.223000000     1.037000000
H    -7.393000000    -1.723000000     1.230000000
O     1.557000000    -1.503000000     4.692000000
H     1.924000000    -2.145000000     4.085000000
H     1.363000000    -2.005000000     5.483000000
O    -0.453000000     1.750000000    -4.147000000
H    -1.041000000     1.044000000    -3.877000000
H    -0.809000000     2.051000000    -4.983000000
O    -1.190000000     2.955000000     4.359000000
H    -0.620000000     2.211000000     4.166000000
H    -0.640000000     3.552000000     4.867000000
O     0.175000000    -5.297000000     2.551000000
H    -0.615000000    -5.541000000     3.034000000
H    -0.146000000    -5.015000000     1.694000000
O    -1.476000000    -1.179000000     6.690000000
H    -2.117000000    -0.514000000     6.942000000
H    -1.456000000    -1.142000000     5.734000000
O    -5.128000000     2.145000000    -0.639000000
H    -4.583000000     1.909000000     0.111000000
H    -5.600000000     2.928000000    -0.356000000
O     3.279000000     4.765000000    -3.853000000
H     2.822000000     4.039000000    -4.278000000
H     2.629000000     5.144000000    -3.262000000
O    -2.569000000     5.281000000     3.928000000
H    -1.865000000     4.638000000     3.844000000
H    -2.531000000     5.559000000     4.843000000
O     0.363000000    -3.191000000    -4.527000000
H     0.931000000    -2.424000000    -4.601000000
H    -0.506000000    -2.870000000    -4.769000000
O     1.254000000    -0.622000000    -4.943000000
H     0.340000000    -0.790000000    -4.713000000
H     1.211000000     0.065000000    -5.608000000
O     6.293000000     0.059000000    -1.999000000
H     6.220000000    -0.813000000    -1.610000000
H     5.725000000     0.026000000    -2.768000000
O    -3.111000000    -4.277000000     5.354000000
H    -3.153000000    -3.423000000     4.924000000
H    -2.439000000    -4.174000000     6.028000000
O    -5.897000000    -0.655000000     1.618000000
H    -6.220000000     0.246000000     1.609000000
H    -4.947000000    -0.567000000     1.702000000
O    -5.862000000    -1.405000000     4.216000000
H    -6.352000000    -2.208000000     4.391000000
H    -5.846000000    -1.338000000     3.261000000
O     2.226000000     2.869000000     3.301000000
H     1.337000000     3.199000000     3.433000000
H     2.148000000     1.921000000     3.406000000
O    -0.203000000     6.548000000    -0.411000000
H    -0.650000000     5.744000000    -0.674000000
H    -0.603000000     7.231000000    -0.949000000
O     5.207000000    -0.942000000    -6.628000000
H     4.739000000    -1.753000000    -6.830000000
H     4.939000000    -0.727000000    -5.735000000
O    -1.939000000     4.715000000    -1.709000000
H    -2.698000000     4.756000000    -2.290000000
H    -1.596000000     3.829000000    -1.824000000
O    -7.058000000     1.881000000     1.686000000
H    -6.583000000     2.708000000     1.606000000
H    -7.519000000     1.949000000     2.522000000
O     2.830000000    -6.456000000    -1.890000000
H     2.761000000    -7.376000000    -2.147000000
H     1.994000000    -6.071000000    -2.152000000
O    -1.483000000    -0.496000000    -2.550000000
H    -1.777000000    -1.378000000    -2.322000000
H    -0.811000000    -0.292000000    -1.899000000
O    -6.444000000    -4.521000000     0.599000000
H    -5.575000000    -4.450000000     0.994000000
H    -6.601000000    -5.463000000     0.533000000
O     0.306000000    -4.669000000    -0.106000000
H     0.134000000    -4.405000000    -1.010000000
H     0.832000000    -5.465000000    -0.185000000
O     5.254000000     2.649000000    -4.196000000
H     4.386000000     3.047000000    -4.118000000
H     5.325000000     2.079000000    -3.431000000
O     4.238000000    -3.633000000    -0.175000000
H     4.530000000    -4.540000000    -0.263000000
H     5.046000000    -3.131000000    -0.064000000
O    -3.393000000    -3.673000000     0.951000000
H    -2.794000000    -4.138000000     1.535000000
H    -3.417000000    -2.780000000     1.295000000
O     3.615000000     5.783000000    -0.421000000
H     3.688000000     5.443000000    -1.313000000
H     3.662000000     5.007000000     0.136000000
O    -5.617000000     4.232000000     1.096000000
H    -4.664000000     4.254000000     1.015000000
H    -5.907000000     5.075000000     0.747000000
O    -3.185000000    -1.955000000     4.216000000
H    -3.910000000    -1.412000000     4.526000000
H    -2.985000000    -1.613000000     3.345000000
O     2.146000000     2.448000000    -4.529000000
H     2.046000000     2.477000000    -5.481000000
H     1.356000000     2.007000000    -4.218000000
O     1.603000000     6.789000000    -2.395000000
H     1.008000000     6.337000000    -1.797000000
H     1.942000000     7.525000000    -1.885000000
O     3.457000000    -3.250000000    -2.866000000
H     3.642000000    -3.335000000    -1.931000000
H     2.507000000    -3.348000000    -2.933000000
O     2.009000000    -3.226000000     2.623000000
H     2.347000000    -3.127000000     1.732000000
H     1.507000000    -4.040000000     2.599000000
