161
-3017.14876
C    -0.553000000     1.139000000    -0.684000000
H    -1.086000000     2.058000000    -0.913000000
C    -1.281000000     0.188000000     0.012000000
H    -2.365000000     0.259000000     0.004000000
C    -0.615000000    -0.879000000     0.631000000
C    -1.434000000    -1.905000000     1.314000000
H    -2.390000000    -1.512000000     1.665000000
H    -1.623000000    -2.648000000     0.536000000
H    -0.921000000    -2.289000000     2.198000000
C     0.781000000    -0.945000000     0.519000000
H     1.335000000    -1.693000000     1.081000000
C     1.449000000    -0.017000000    -0.244000000
H     2.505000000    -0.140000000    -0.467000000
C     0.826000000     1.086000000    -0.759000000
C     1.574000000     2.185000000    -1.445000000
O     2.783000000     2.182000000    -1.270000000
O     1.018000000     2.926000000    -2.180000000
O    -3.551000000    -3.602000000    -3.670000000
H    -4.327000000    -3.457000000    -3.128000000
H    -2.857000000    -3.807000000    -3.044000000
O    -1.279000000    -0.521000000    -3.320000000
H    -0.680000000    -1.139000000    -2.902000000
H    -1.280000000     0.241000000    -2.740000000
O     1.158000000    -2.261000000    -3.345000000
H     1.338000000    -2.975000000    -2.733000000
H     1.981000000    -1.775000000    -3.395000000
O     0.791000000     7.224000000     0.032000000
H     1.078000000     6.510000000    -0.537000000
H     1.264000000     7.082000000     0.852000000
O    -0.598000000     2.399000000    -4.247000000
H    -0.171000000     2.759000000    -3.469000000
H    -1.463000000     2.128000000    -3.941000000
O     2.803000000    -5.399000000     2.848000000
H     3.664000000    -5.774000000     2.659000000
H     2.537000000    -4.985000000     2.027000000
O     4.807000000     5.245000000     1.436000000
H     4.193000000     4.668000000     1.890000000
H     4.694000000     5.033000000     0.509000000
O     0.245000000     0.802000000    -6.323000000
H     0.118000000     1.125000000    -5.430000000
H     1.131000000     1.081000000    -6.554000000
O    -6.267000000    -2.441000000     0.641000000
H    -6.194000000    -1.620000000     1.126000000
H    -5.878000000    -3.097000000     1.219000000
O    -4.253000000     2.046000000     2.232000000
H    -4.573000000     2.947000000     2.273000000
H    -3.444000000     2.103000000     1.724000000
O    -5.250000000    -0.931000000    -3.571000000
H    -5.929000000    -0.367000000    -3.201000000
H    -5.425000000    -1.795000000    -3.198000000
O    -5.569000000    -3.468000000     2.938000000
H    -4.681000000    -3.826000000     2.949000000
H    -5.546000000    -2.753000000     3.574000000
O     4.404000000     4.234000000    -1.067000000
H     4.832000000     4.032000000    -1.899000000
H     3.906000000     3.444000000    -0.856000000
O    -3.501000000     1.511000000    -3.683000000
H    -4.219000000     0.883000000    -3.614000000
H    -3.895000000     2.281000000    -4.095000000
O     1.803000000     5.264000000    -1.612000000
H     1.507000000     4.354000000    -1.642000000
H     2.757000000     5.207000000    -1.679000000
O     0.938000000    -5.255000000     4.653000000
H     1.495000000    -4.936000000     5.364000000
H     1.541000000    -5.399000000     3.923000000
O     0.792000000    -0.092000000     3.761000000
H     0.153000000     0.620000000     3.733000000
H     0.329000000    -0.844000000     3.393000000
O     2.129000000     4.740000000    -5.370000000
H     1.625000000     4.229000000    -6.004000000
H     2.534000000     4.084000000    -4.802000000
O    -4.273000000     5.310000000    -1.926000000
H    -3.614000000     5.677000000    -2.515000000
H    -5.104000000     5.443000000    -2.383000000
O     1.759000000    -0.385000000     6.411000000
H     1.755000000     0.397000000     6.962000000
H     1.285000000    -0.125000000     5.622000000
O    -5.561000000    -6.394000000     1.317000000
H    -5.227000000    -6.968000000     0.627000000
H    -4.826000000    -5.818000000     1.526000000
O    -1.463000000    -4.153000000     4.923000000
H    -1.887000000    -5.001000000     5.047000000
H    -0.549000000    -4.367000000     4.736000000
O    -1.374000000    -5.778000000     0.238000000
H    -1.846000000    -6.389000000     0.804000000
H    -0.903000000    -6.338000000    -0.379000000
O     3.067000000    -4.195000000     0.427000000
H     3.108000000    -3.288000000     0.126000000
H     3.947000000    -4.539000000     0.272000000
O    -2.944000000    -6.350000000    -2.635000000
H    -2.423000000    -5.704000000    -2.158000000
H    -2.644000000    -6.278000000    -3.541000000
O    -1.442000000    -4.099000000    -1.909000000
H    -0.549000000    -4.164000000    -2.247000000
H    -1.374000000    -4.383000000    -0.997000000
O     3.132000000     1.161000000     3.544000000
H     2.293000000     0.881000000     3.911000000
H     3.495000000     0.371000000     3.145000000
O     3.315000000     2.814000000    -3.908000000
H     4.244000000     3.043000000    -3.904000000
H     3.071000000     2.788000000    -2.983000000
O    -6.079000000     0.357000000     0.999000000
H    -5.714000000     0.861000000     1.727000000
H    -5.539000000     0.598000000     0.247000000
O    -0.355000000     3.836000000    -6.449000000
H    -0.265000000     3.078000000    -5.872000000
H    -1.220000000     4.191000000    -6.244000000
O    -0.871000000     6.044000000    -3.313000000
H    -0.136000000     6.281000000    -3.878000000
H    -0.480000000     5.511000000    -2.621000000
O    -3.348000000    -4.650000000     2.634000000
H    -2.605000000    -4.121000000     2.343000000
H    -2.953000000    -5.463000000     2.951000000
O     3.642000000    -2.152000000    -1.517000000
H     4.017000000    -2.703000000    -2.204000000
H     3.971000000    -1.274000000    -1.708000000
O    -0.886000000     2.122000000     4.061000000
H    -0.806000000     2.401000000     3.149000000
H    -0.464000000     2.820000000     4.562000000
O     0.479000000     3.703000000     2.268000000
H     0.207000000     4.457000000     2.792000000
H     1.406000000     3.859000000     2.088000000
O    -2.749000000    -1.838000000     5.986000000
H    -2.656000000    -1.174000000     5.302000000
H    -2.266000000    -2.594000000     5.653000000
O     5.940000000     3.713000000    -3.449000000
H     6.247000000     2.937000000    -2.981000000
H     6.516000000     3.776000000    -4.211000000
O    -2.828000000     0.203000000     4.109000000
H    -3.670000000     0.530000000     3.794000000
H    -2.258000000     0.973000000     4.110000000
O    -5.770000000    -3.224000000    -2.167000000
H    -6.193000000    -4.081000000    -2.228000000
H    -6.107000000    -2.849000000    -1.353000000
O    -2.222000000     3.980000000     1.249000000
H    -1.268000000     3.912000000     1.277000000
H    -2.450000000     3.780000000     0.341000000
O     7.418000000     1.690000000    -1.986000000
H     7.579000000     1.032000000    -2.662000000
H     8.132000000     2.319000000    -2.090000000
O     3.257000000     3.839000000     3.210000000
H     3.576000000     4.260000000     4.008000000
H     3.359000000     2.902000000     3.377000000
O     1.235000000    -4.909000000    -1.417000000
H     0.641000000    -5.541000000    -1.011000000
H     1.778000000    -4.593000000    -0.695000000
O    -5.392000000    -1.446000000     4.932000000
H    -5.368000000    -0.490000000     4.944000000
H    -4.515000000    -1.712000000     5.209000000
O     5.223000000    -1.629000000     1.792000000
H     4.892000000    -1.623000000     0.894000000
H     5.555000000    -2.518000000     1.919000000
O     4.841000000     0.603000000    -1.258000000
H     4.118000000     1.192000000    -1.477000000
H     5.630000000     1.113000000    -1.440000000
O     3.053000000    -0.159000000    -3.624000000
H     2.707000000     0.508000000    -4.217000000
H     3.845000000     0.235000000    -3.257000000
O     7.303000000    -1.640000000    -1.086000000
H     6.633000000    -1.035000000    -1.404000000
H     7.649000000    -1.222000000    -0.297000000
