161
-3027.17565
C    -0.240000000     1.315000000    -0.700000000
H    -0.597000000     2.170000000    -1.269000000
C    -1.076000000     0.642000000     0.180000000
H    -2.090000000     0.985000000     0.369000000
C    -0.725000000    -0.563000000     0.798000000
C    -1.618000000    -1.252000000     1.844000000
H    -0.975000000    -1.513000000     2.686000000
H    -2.453000000    -0.621000000     2.157000000
H    -2.071000000    -2.158000000     1.436000000
C     0.441000000    -1.150000000     0.431000000
H     0.634000000    -2.042000000     1.022000000
C     1.284000000    -0.559000000    -0.549000000
H     2.201000000    -1.069000000    -0.835000000
C     0.922000000     0.727000000    -1.089000000
C     1.914000000     1.503000000    -1.905000000
O     2.880000000     0.942000000    -2.326000000
O     1.561000000     2.651000000    -2.257000000
O    -2.987000000    -3.654000000    -2.766000000
H    -3.205000000    -2.722000000    -2.756000000
H    -2.788000000    -3.863000000    -1.853000000
O    -6.349000000    -1.643000000     2.076000000
H    -7.123000000    -1.974000000     2.531000000
H    -5.789000000    -2.411000000     1.965000000
O     2.629000000     7.653000000    -3.858000000
H     2.638000000     6.695000000    -3.866000000
H     2.689000000     7.885000000    -2.932000000
O    -2.932000000    -1.144000000    -1.675000000
H    -2.576000000    -0.257000000    -1.727000000
H    -2.642000000    -1.469000000    -0.823000000
O     0.733000000    -2.845000000    -5.691000000
H     1.256000000    -3.646000000    -5.667000000
H     1.134000000    -2.278000000    -5.032000000
O    -0.178000000     2.586000000    -4.197000000
H     0.438000000     2.488000000    -3.472000000
H    -1.028000000     2.357000000    -3.822000000
O     4.970000000     4.853000000     1.057000000
H     5.624000000     4.193000000     0.829000000
H     4.417000000     4.921000000     0.278000000
O     1.486000000     1.415000000    -6.327000000
H     0.930000000     1.649000000    -5.583000000
H     2.378000000     1.459000000    -5.983000000
O    -2.351000000    -4.354000000     0.046000000
H    -2.766000000    -4.163000000     0.887000000
H    -1.581000000    -4.876000000     0.272000000
O    -4.067000000     2.613000000     2.805000000
H    -4.299000000     3.094000000     2.011000000
H    -3.599000000     3.251000000     3.343000000
O    -4.682000000    -3.936000000     2.215000000
H    -4.663000000    -4.893000000     2.198000000
H    -4.239000000    -3.702000000     3.030000000
O     4.200000000     1.569000000     0.122000000
H     4.416000000     0.718000000     0.502000000
H     4.088000000     1.393000000    -0.812000000
O    -2.895000000     2.477000000    -3.127000000
H    -3.423000000     1.966000000    -2.514000000
H    -3.346000000     3.319000000    -3.188000000
O    -5.168000000    -0.324000000     4.484000000
H    -5.095000000     0.624000000     4.598000000
H    -5.482000000    -0.434000000     3.587000000
O     3.684000000     4.941000000    -1.620000000
H     2.983000000     4.445000000    -2.044000000
H     4.433000000     4.848000000    -2.209000000
O     2.154000000     4.835000000    -4.079000000
H     1.219000000     4.965000000    -4.237000000
H     2.271000000     3.885000000    -4.106000000
O    -2.156000000     5.821000000     0.237000000
H    -2.888000000     5.279000000     0.531000000
H    -2.564000000     6.634000000    -0.061000000
O     6.424000000     2.102000000    -5.175000000
H     6.927000000     1.898000000    -5.964000000
H     6.800000000     1.538000000    -4.499000000
O    -4.699000000     0.827000000    -1.560000000
H    -5.553000000     0.861000000    -1.990000000
H    -4.472000000    -0.103000000    -1.551000000
O     0.752000000    -4.018000000     3.660000000
H     0.978000000    -4.946000000     3.718000000
H     1.475000000    -3.625000000     3.171000000
O     2.591000000    -5.151000000    -1.704000000
H     2.913000000    -5.853000000    -2.270000000
H     2.293000000    -5.599000000    -0.913000000
O     4.038000000    -3.261000000    -0.426000000
H     4.774000000    -3.252000000    -1.039000000
H     3.423000000    -3.891000000    -0.800000000
O     5.212000000    -1.215000000    -5.437000000
H     4.422000000    -0.718000000    -5.647000000
H     5.533000000    -0.823000000    -4.625000000
O     2.160000000    -0.064000000     2.942000000
H     1.723000000     0.527000000     3.555000000
H     1.723000000     0.092000000     2.105000000
O     3.783000000     1.819000000    -4.958000000
H     4.705000000     2.053000000    -5.064000000
H     3.732000000     1.439000000    -4.081000000
O    -6.602000000     0.734000000     0.769000000
H    -6.822000000    -0.159000000     1.034000000
H    -5.646000000     0.764000000     0.798000000
O    -0.385000000     5.338000000    -5.334000000
H    -0.324000000     4.384000000    -5.290000000
H    -1.011000000     5.506000000    -6.039000000
O    -0.087000000     5.039000000    -2.097000000
H     0.668000000     4.459000000    -2.003000000
H    -0.807000000     4.458000000    -2.344000000
O     5.586000000     4.511000000    -3.419000000
H     5.248000000     4.900000000    -4.226000000
H     5.836000000     3.622000000    -3.668000000
O    -1.599000000    -5.722000000     2.980000000
H    -0.858000000    -5.144000000     3.160000000
H    -1.718000000    -6.219000000     3.790000000
O     5.785000000    -2.753000000    -2.506000000
H     5.491000000    -3.227000000    -3.284000000
H     5.499000000    -1.851000000    -2.653000000
O     5.842000000     0.834000000     2.622000000
H     5.272000000     0.269000000     2.101000000
H     5.278000000     1.163000000     3.322000000
O     0.064000000     1.713000000     3.358000000
H     0.427000000     2.465000000     3.825000000
H    -0.137000000     2.048000000     2.484000000
O     2.671000000     3.368000000     1.714000000
H     3.092000000     2.707000000     1.166000000
H     3.365000000     4.000000000     1.904000000
O    -1.053000000    -2.411000000     5.179000000
H    -1.125000000    -1.507000000     4.874000000
H    -0.451000000    -2.825000000     4.561000000
O    -1.855000000     1.127000000     5.286000000
H    -2.654000000     0.894000000     4.812000000
H    -1.256000000     1.438000000     4.608000000
O    -5.406000000    -3.737000000    -1.285000000
H    -5.229000000    -4.154000000    -0.442000000
H    -4.648000000    -3.959000000    -1.826000000
O     1.358000000     5.217000000     0.294000000
H     1.587000000     4.511000000     0.899000000
H     0.489000000     4.980000000    -0.031000000
O     2.786000000     7.444000000    -1.099000000
H     2.674000000     7.375000000    -0.151000000
H     2.936000000     6.544000000    -1.388000000
O     0.794000000    -3.022000000    -2.456000000
H     1.552000000    -3.604000000    -2.404000000
H     0.062000000    -3.554000000    -2.142000000
O    -3.573000000    -2.984000000     4.572000000
H    -3.955000000    -2.140000000     4.812000000
H    -2.762000000    -3.033000000     5.077000000
O    -2.207000000    -2.841000000     7.522000000
H    -1.917000000    -2.717000000     6.618000000
H    -2.601000000    -2.002000000     7.764000000
O     3.077000000    -3.437000000     2.273000000
H     3.534000000    -4.104000000     2.784000000
H     3.344000000    -3.602000000     1.368000000
O     5.281000000    -0.141000000    -2.761000000
H     4.462000000     0.307000000    -2.549000000
H     5.923000000     0.563000000    -2.851000000
O    -0.331000000    -6.485000000    -0.706000000
H     0.085000000    -6.401000000    -1.564000000
H     0.380000000    -6.342000000    -0.081000000
O     2.018000000    -6.442000000     0.721000000
H     2.726000000    -7.023000000     0.445000000
H     2.024000000    -6.493000000     1.677000000
O     1.812000000    -0.892000000    -3.937000000
H     2.334000000    -0.291000000    -3.404000000
H     1.295000000    -1.387000000    -3.302000000
O     4.592000000    -1.175000000     1.256000000
H     4.608000000    -2.018000000     0.801000000
H     4.114000000    -1.350000000     2.067000000
