161
-2993.23286
C     0.352000000     1.367000000     0.291000000
H     0.460000000     2.433000000     0.474000000
C     0.210000000     0.370000000     1.192000000
H     0.412000000     0.537000000     2.247000000
C    -0.166000000    -0.910000000     0.812000000
C    -0.284000000    -1.884000000     1.931000000
H    -0.477000000    -2.881000000     1.530000000
H     0.588000000    -1.861000000     2.588000000
H    -1.117000000    -1.594000000     2.574000000
C    -0.381000000    -1.175000000    -0.561000000
H    -0.792000000    -2.159000000    -0.774000000
C    -0.137000000    -0.185000000    -1.511000000
H    -0.267000000    -0.460000000    -2.554000000
C     0.153000000     1.127000000    -1.056000000
C     0.355000000     2.175000000    -2.147000000
O     0.518000000     1.796000000    -3.273000000
O     0.573000000     3.304000000    -1.757000000
O    -3.649000000    -3.507000000    -3.345000000
H    -2.892000000    -3.000000000    -3.637000000
H    -3.990000000    -3.018000000    -2.596000000
O    -1.405000000    -6.828000000    -3.013000000
H    -2.087000000    -7.183000000    -3.582000000
H    -1.650000000    -5.911000000    -2.887000000
O    -4.604000000    -2.086000000    -1.179000000
H    -3.970000000    -1.416000000    -0.923000000
H    -4.679000000    -2.651000000    -0.410000000
O     3.834000000     4.537000000    -6.323000000
H     4.566000000     4.952000000    -5.867000000
H     3.419000000     3.988000000    -5.659000000
O     1.984000000    -4.426000000    -3.292000000
H     1.874000000    -3.512000000    -3.032000000
H     2.274000000    -4.869000000    -2.495000000
O    -0.367000000     2.516000000    -5.686000000
H    -0.425000000     2.151000000    -4.803000000
H    -0.582000000     1.784000000    -6.263000000
O     3.326000000     6.781000000    -0.276000000
H     2.942000000     6.958000000    -1.135000000
H     3.361000000     5.826000000    -0.221000000
O     1.117000000    -1.167000000    -5.076000000
H     1.676000000    -0.618000000    -4.526000000
H     1.697000000    -1.864000000    -5.385000000
O    -4.259000000    -3.574000000     0.978000000
H    -4.621000000    -3.277000000     1.813000000
H    -4.203000000    -4.526000000     1.067000000
O    -5.381000000    -1.767000000     3.230000000
H    -5.493000000    -1.421000000     4.115000000
H    -4.802000000    -1.138000000     2.798000000
O    -3.669000000     0.151000000     2.558000000
H    -2.741000000     0.120000000     2.790000000
H    -4.085000000     0.599000000     3.295000000
O    -2.321000000     4.685000000    -6.329000000
H    -1.411000000     4.397000000    -6.255000000
H    -2.820000000     4.027000000    -5.845000000
O     2.870000000     4.258000000    -0.753000000
H     2.078000000     3.848000000    -1.102000000
H     3.540000000     3.577000000    -0.818000000
O    -2.560000000     0.791000000    -3.146000000
H    -2.984000000     0.653000000    -2.299000000
H    -2.714000000     1.715000000    -3.344000000
O     0.640000000     4.880000000    -5.902000000
H     1.340000000     4.755000000    -5.261000000
H     0.198000000     4.032000000    -5.941000000
O     2.213000000     4.194000000    -3.773000000
H     2.974000000     4.025000000    -3.217000000
H     1.477000000     3.811000000    -3.296000000
O    -2.247000000     4.073000000     2.383000000
H    -3.133000000     3.762000000     2.566000000
H    -2.339000000     4.609000000     1.595000000
O     0.781000000    -6.778000000     0.856000000
H    -0.105000000    -7.046000000     0.611000000
H     0.848000000    -6.993000000     1.786000000
O     3.328000000    -4.420000000     4.720000000
H     4.164000000    -4.862000000     4.572000000
H     2.886000000    -4.958000000     5.377000000
O     2.599000000    -1.947000000    -2.430000000
H     1.811000000    -1.767000000    -1.917000000
H     2.935000000    -1.082000000    -2.665000000
O    -0.757000000     7.393000000     0.111000000
H    -0.344000000     6.840000000     0.774000000
H    -1.641000000     7.546000000     0.445000000
O    -2.994000000     3.377000000    -3.706000000
H    -3.915000000     3.341000000    -3.446000000
H    -2.587000000     3.962000000    -3.068000000
O    -1.710000000    -1.654000000    -4.123000000
H    -1.833000000    -0.790000000    -3.731000000
H    -0.896000000    -1.578000000    -4.621000000
O     0.583000000     3.489000000     2.938000000
H     1.002000000     2.716000000     3.318000000
H    -0.342000000     3.254000000     2.875000000
O     3.195000000    -2.747000000     1.685000000
H     2.274000000    -2.929000000     1.499000000
H     3.646000000    -3.568000000     1.488000000
O     2.842000000     0.847000000    -4.104000000
H     3.469000000     1.552000000    -3.939000000
H     1.986000000     1.272000000    -4.058000000
O     5.269000000     4.010000000     1.506000000
H     4.812000000     4.420000000     2.241000000
H     4.585000000     3.856000000     0.855000000
O    -2.907000000     6.867000000    -3.798000000
H    -2.464000000     6.121000000    -3.393000000
H    -3.157000000     6.554000000    -4.667000000
O    -1.470000000     5.096000000    -2.226000000
H    -0.588000000     4.740000000    -2.123000000
H    -1.824000000     5.120000000    -1.337000000
O     4.711000000     3.018000000    -4.227000000
H     5.443000000     3.611000000    -4.055000000
H     5.110000000     2.149000000    -4.264000000
O     3.176000000     0.691000000    -6.868000000
H     3.123000000     0.458000000    -5.941000000
H     4.060000000     1.043000000    -6.976000000
O     1.645000000     1.311000000     4.707000000
H     1.875000000     0.382000000     4.707000000
H     2.456000000     1.758000000     4.946000000
O    -3.386000000     1.115000000    -5.754000000
H    -3.730000000     2.000000000    -5.628000000
H    -3.192000000     0.805000000    -4.869000000
O     0.047000000    -1.633000000     5.746000000
H     0.922000000    -1.400000000     5.435000000
H     0.085000000    -2.579000000     5.883000000
O     4.252000000     2.003000000    -0.885000000
H     4.677000000     1.588000000    -1.635000000
H     4.470000000     1.438000000    -0.143000000
O    -1.285000000     0.346000000    -7.301000000
H    -2.038000000     0.348000000    -6.711000000
H    -1.563000000     0.876000000    -8.048000000
O    -1.287000000     0.711000000     4.568000000
H    -0.927000000    -0.030000000     5.054000000
H    -0.551000000     1.316000000     4.473000000
O    -4.045000000     1.522000000     4.988000000
H    -3.088000000     1.527000000     5.015000000
H    -4.311000000     1.673000000     5.895000000
O     0.818000000     6.036000000     1.807000000
H     0.448000000     5.272000000     2.249000000
H     1.765000000     5.907000000     1.858000000
O     2.058000000     6.942000000    -3.073000000
H     1.893000000     6.022000000    -3.279000000
H     1.229000000     7.260000000    -2.713000000
O    -1.922000000    -5.148000000     5.464000000
H    -1.800000000    -5.883000000     6.064000000
H    -1.824000000    -5.532000000     4.593000000
O     2.554000000    -5.396000000    -0.830000000
H     3.411000000    -5.287000000    -0.419000000
H     1.958000000    -5.569000000    -0.101000000
O     0.506000000     2.935000000     6.483000000
H     1.034000000     3.734000000     6.505000000
H     0.933000000     2.384000000     5.827000000
O    -1.623000000    -0.836000000     7.643000000
H    -1.184000000    -0.388000000     8.365000000
H    -0.951000000    -0.916000000     6.966000000
O     2.396000000    -1.744000000     4.459000000
H     2.367000000    -2.685000000     4.634000000
H     2.621000000    -1.680000000     3.531000000
O     3.475000000    -0.072000000     2.041000000
H     3.530000000    -1.000000000     1.810000000
H     2.588000000     0.185000000     1.790000000
O    -2.999000000     0.453000000    -0.194000000
H    -2.951000000     0.216000000     0.732000000
H    -2.141000000     0.217000000    -0.547000000
O     5.342000000     1.544000000     3.399000000
H     4.635000000     1.085000000     2.944000000
H     4.905000000     2.011000000     4.111000000
