161
-2998.73304
C     0.035000000     1.446000000     0.135000000
H     0.243000000     2.500000000     0.300000000
C     0.188000000     0.574000000     1.224000000
H     0.450000000     1.080000000     2.150000000
C     0.111000000    -0.803000000     0.996000000
C     0.342000000    -1.849000000     2.033000000
H    -0.400000000    -2.648000000     1.959000000
H     1.302000000    -2.318000000     1.806000000
H     0.240000000    -1.392000000     3.019000000
C    -0.164000000    -1.184000000    -0.307000000
H    -0.314000000    -2.244000000    -0.490000000
C    -0.333000000    -0.310000000    -1.353000000
H    -0.675000000    -0.700000000    -2.308000000
C    -0.206000000     1.044000000    -1.188000000
C    -0.371000000     1.976000000    -2.364000000
O     0.048000000     1.677000000    -3.505000000
O    -0.502000000     3.155000000    -2.112000000
O    -2.124000000     6.965000000    -4.795000000
H    -2.821000000     6.944000000    -5.451000000
H    -2.302000000     7.753000000    -4.282000000
O     2.011000000    -2.082000000    -6.355000000
H     1.950000000    -1.204000000    -6.729000000
H     1.715000000    -1.978000000    -5.451000000
O    -1.301000000     0.535000000    -5.698000000
H    -0.983000000     0.899000000    -4.871000000
H    -0.716000000     0.900000000    -6.361000000
O     5.761000000     0.410000000     1.330000000
H     4.869000000     0.135000000     1.122000000
H     6.319000000    -0.197000000     0.844000000
O     0.565000000     1.143000000    -7.912000000
H     1.513000000     1.266000000    -7.968000000
H     0.202000000     1.829000000    -8.473000000
O    -3.171000000    -2.261000000     1.773000000
H    -2.694000000    -3.006000000     2.137000000
H    -3.174000000    -2.416000000     0.829000000
O    -3.205000000     0.454000000    -0.142000000
H    -2.252000000     0.375000000    -0.109000000
H    -3.486000000     0.350000000     0.767000000
O    -1.006000000     5.207000000    -0.574000000
H    -0.948000000     4.494000000    -1.209000000
H    -0.299000000     5.804000000    -0.818000000
O    -2.936000000    -2.788000000    -1.052000000
H    -2.339000000    -2.957000000    -1.780000000
H    -3.505000000    -2.086000000    -1.366000000
O     2.534000000     2.243000000     4.253000000
H     2.800000000     1.334000000     4.387000000
H     2.708000000     2.670000000     5.091000000
O     4.037000000    -2.174000000     2.612000000
H     4.914000000    -2.546000000     2.705000000
H     3.911000000    -1.657000000     3.408000000
O    -3.304000000     3.673000000    -7.120000000
H    -2.550000000     3.409000000    -7.646000000
H    -3.010000000     3.574000000    -6.214000000
O     1.036000000     1.725000000     7.602000000
H     0.359000000     1.795000000     6.929000000
H     0.553000000     1.725000000     8.429000000
O     1.749000000    -7.135000000     0.566000000
H     2.310000000    -6.837000000     1.282000000
H     2.269000000    -6.988000000    -0.224000000
O     3.337000000    -3.231000000     0.180000000
H     4.197000000    -3.489000000    -0.152000000
H     3.522000000    -2.800000000     1.014000000
O    -1.355000000     1.601000000     6.227000000
H    -1.881000000     1.158000000     6.892000000
H    -1.686000000     1.262000000     5.395000000
O    -3.401000000     5.584000000     0.564000000
H    -2.801000000     5.122000000    -0.021000000
H    -3.155000000     6.505000000     0.480000000
O    -4.378000000     6.939000000    -2.720000000
H    -3.431000000     6.934000000    -2.862000000
H    -4.507000000     6.384000000    -1.951000000
O    -0.728000000    -6.693000000    -0.829000000
H     0.177000000    -6.684000000    -0.516000000
H    -0.651000000    -6.666000000    -1.783000000
O    -1.007000000    -3.696000000    -2.757000000
H    -0.976000000    -4.543000000    -3.201000000
H    -0.438000000    -3.804000000    -1.995000000
O     2.077000000    -5.739000000     3.647000000
H     3.006000000    -5.967000000     3.613000000
H     2.049000000    -4.916000000     4.134000000
O    -0.337000000     4.329000000     1.795000000
H    -0.505000000     4.443000000     0.859000000
H     0.570000000     4.025000000     1.840000000
O     2.648000000     1.266000000    -4.624000000
H     2.303000000     1.626000000    -5.442000000
H     1.880000000     1.172000000    -4.061000000
O     1.191000000     7.233000000    -1.545000000
H     1.406000000     6.492000000    -2.112000000
H     1.689000000     7.074000000    -0.744000000
O    -1.779000000     4.004000000    -4.765000000
H    -1.260000000     3.655000000    -4.041000000
H    -1.940000000     4.917000000    -4.527000000
O    -2.875000000    -6.355000000     0.793000000
H    -2.611000000    -5.557000000     1.252000000
H    -2.200000000    -6.481000000     0.125000000
O    -4.230000000     0.111000000    -2.770000000
H    -3.887000000     0.506000000    -1.969000000
H    -5.177000000     0.081000000    -2.636000000
O    -0.239000000     4.800000000     6.209000000
H    -0.839000000     4.977000000     5.485000000
H     0.529000000     4.407000000     5.794000000
O    -1.663000000     5.375000000     3.980000000
H    -2.542000000     5.052000000     3.780000000
H    -1.159000000     5.203000000     3.185000000
O     3.288000000     3.470000000    -7.159000000
H     2.511000000     3.322000000    -6.618000000
H     2.942000000     3.783000000    -7.995000000
O     3.888000000    -1.161000000     5.024000000
H     4.806000000    -0.925000000     5.156000000
H     3.745000000    -1.902000000     5.613000000
O     3.104000000     0.171000000     0.438000000
H     2.951000000    -0.774000000     0.413000000
H     2.240000000     0.549000000     0.602000000
O     1.524000000     4.775000000    -2.727000000
H     2.055000000     4.183000000    -3.260000000
H     0.815000000     4.226000000    -2.392000000
O    -1.990000000     0.137000000     3.621000000
H    -1.209000000     0.521000000     3.223000000
H    -2.019000000    -0.756000000     3.278000000
O    -0.998000000    -2.788000000    -5.812000000
H    -1.633000000    -2.199000000    -5.404000000
H    -0.755000000    -3.398000000    -5.116000000
O     2.761000000     6.703000000    -4.368000000
H     2.356000000     6.140000000    -3.707000000
H     2.022000000     7.095000000    -4.833000000
O    -4.455000000    -5.720000000    -2.254000000
H    -4.812000000    -5.340000000    -1.452000000
H    -3.539000000    -5.443000000    -2.263000000
O    -3.582000000    -1.187000000    -5.540000000
H    -3.930000000    -1.292000000    -4.655000000
H    -2.974000000    -0.450000000    -5.473000000
O    -1.863000000    -4.671000000     2.889000000
H    -0.951000000    -4.851000000     2.664000000
H    -2.085000000    -5.336000000     3.541000000
O     1.075000000     3.452000000    -5.552000000
H     0.497000000     2.938000000    -4.987000000
H     0.541000000     4.198000000    -5.825000000
O    -5.694000000    -1.739000000     2.282000000
H    -4.769000000    -1.615000000     2.069000000
H    -5.707000000    -2.506000000     2.855000000
O     1.893000000    -2.229000000    -3.718000000
H     1.478000000    -2.901000000    -3.177000000
H     2.707000000    -2.021000000    -3.260000000
O     1.869000000     6.786000000     0.968000000
H     2.111000000     6.084000000     1.573000000
H     1.338000000     7.384000000     1.494000000
O     3.671000000     2.002000000    -1.711000000
H     3.171000000     1.562000000    -1.024000000
H     3.172000000     1.840000000    -2.512000000
O     5.052000000     0.186000000    -4.184000000
H     4.766000000    -0.645000000    -3.806000000
H     4.241000000     0.624000000    -4.442000000
O     2.475000000     3.891000000     1.943000000
H     3.398000000     3.968000000     1.699000000
H     2.492000000     3.590000000     2.852000000
O    -4.532000000     1.269000000     3.788000000
H    -3.784000000     0.678000000     3.869000000
H    -4.174000000     2.056000000     3.378000000
O     1.257000000    -4.084000000    -1.468000000
H     1.938000000    -3.810000000    -0.853000000
H     1.739000000    -4.405000000    -2.230000000
