161
-3013.81039
C    -0.501000000     1.313000000    -0.381000000
H    -0.878000000     2.315000000    -0.572000000
C    -1.019000000     0.498000000     0.660000000
H    -1.818000000     0.980000000     1.217000000
C    -0.450000000    -0.750000000     0.897000000
C    -1.125000000    -1.625000000     1.925000000
H    -0.623000000    -2.553000000     2.206000000
H    -1.193000000    -1.108000000     2.885000000
H    -2.065000000    -2.056000000     1.575000000
C     0.660000000    -1.210000000     0.079000000
H     1.198000000    -2.129000000     0.293000000
C     1.188000000    -0.276000000    -0.853000000
H     2.021000000    -0.536000000    -1.502000000
C     0.590000000     0.915000000    -1.109000000
C     1.160000000     1.820000000    -2.180000000
O     2.285000000     1.622000000    -2.499000000
O     0.563000000     2.787000000    -2.635000000
O    -2.625000000    -3.983000000    -2.190000000
H    -2.446000000    -4.912000000    -2.046000000
H    -3.436000000    -3.818000000    -1.709000000
O     0.584000000    -3.851000000    -5.035000000
H     0.429000000    -3.693000000    -4.104000000
H     1.159000000    -3.136000000    -5.307000000
O     1.419000000     6.286000000     0.371000000
H     0.548000000     6.022000000     0.669000000
H     1.337000000     7.222000000     0.188000000
O    -0.512000000     1.792000000    -4.964000000
H    -0.327000000     2.079000000    -4.070000000
H    -1.454000000     1.624000000    -4.971000000
O     3.692000000     4.733000000    -0.026000000
H     3.864000000     4.429000000    -0.917000000
H     2.920000000     5.293000000    -0.108000000
O     0.583000000     1.981000000    -7.251000000
H     0.114000000     2.044000000    -6.418000000
H     0.730000000     1.043000000    -7.372000000
O    -4.318000000    -4.877000000    -0.144000000
H    -4.455000000    -4.214000000     0.533000000
H    -3.923000000    -5.615000000     0.320000000
O    -4.049000000    -4.675000000     2.951000000
H    -3.112000000    -4.493000000     2.880000000
H    -4.468000000    -3.821000000     2.843000000
O     2.319000000     1.333000000     1.618000000
H     3.111000000     0.828000000     1.433000000
H     1.641000000     0.921000000     1.082000000
O    -3.292000000     2.385000000    -4.643000000
H    -3.085000000     3.310000000    -4.509000000
H    -4.040000000     2.392000000    -5.241000000
O    -4.726000000    -0.975000000     4.031000000
H    -5.187000000    -0.561000000     4.761000000
H    -3.894000000    -0.505000000     3.976000000
O     3.507000000     4.066000000    -2.562000000
H     2.855000000     3.367000000    -2.523000000
H     4.346000000     3.609000000    -2.615000000
O    -1.605000000     3.415000000     3.627000000
H    -0.735000000     3.292000000     4.008000000
H    -1.943000000     2.527000000     3.512000000
O     4.967000000    -3.834000000     3.451000000
H     4.546000000    -3.268000000     2.804000000
H     5.363000000    -3.228000000     4.077000000
O     1.559000000     4.447000000    -4.797000000
H     2.507000000     4.581000000    -4.776000000
H     1.362000000     4.002000000    -3.973000000
O    -3.509000000     4.831000000    -1.210000000
H    -3.943000000     4.154000000    -0.690000000
H    -4.219000000     5.406000000    -1.496000000
O    -3.696000000     0.933000000    -2.248000000
H    -3.220000000     0.122000000    -2.426000000
H    -3.396000000     1.539000000    -2.925000000
O     1.248000000    -5.504000000    -0.509000000
H     1.834000000    -5.951000000    -1.119000000
H     0.827000000    -6.212000000    -0.021000000
O     3.121000000    -3.859000000     0.612000000
H     2.337000000    -4.243000000     0.220000000
H     3.755000000    -4.576000000     0.631000000
O     2.345000000    -1.949000000    -5.959000000
H     2.258000000    -1.838000000    -6.906000000
H     2.892000000    -1.214000000    -5.681000000
O    -3.460000000     5.094000000    -4.678000000
H    -2.952000000     5.003000000    -3.872000000
H    -3.956000000     5.903000000    -4.559000000
O     1.452000000    -0.085000000     3.897000000
H     0.590000000     0.115000000     4.261000000
H     1.622000000     0.627000000     3.279000000
O     3.426000000     0.389000000    -4.716000000
H     4.161000000     1.000000000    -4.766000000
H     2.831000000     0.782000000    -4.078000000
O    -5.426000000    -0.899000000    -0.523000000
H    -6.135000000    -0.344000000    -0.197000000
H    -4.891000000    -0.314000000    -1.058000000
O    -0.219000000     5.154000000    -6.742000000
H     0.397000000     4.811000000    -6.094000000
H    -1.055000000     4.748000000    -6.515000000
O    -1.191000000     4.605000000    -3.102000000
H    -0.400000000     4.069000000    -3.050000000
H    -1.677000000     4.393000000    -2.304000000
O     4.362000000     4.379000000    -5.377000000
H     5.059000000     5.034000000    -5.337000000
H     4.821000000     3.539000000    -5.345000000
O     3.086000000    -4.328000000    -3.963000000
H     2.416000000    -4.080000000    -3.326000000
H     3.390000000    -3.496000000    -4.326000000
O     3.785000000    -2.275000000    -2.066000000
H     4.315000000    -3.071000000    -2.022000000
H     2.989000000    -2.490000000    -1.579000000
O    -0.229000000     1.080000000     5.784000000
H     0.405000000     0.629000000     6.342000000
H     0.222000000     1.878000000     5.508000000
O     2.736000000     3.890000000     2.319000000
H     2.817000000     2.947000000     2.175000000
H     2.916000000     4.279000000     1.463000000
O    -1.523000000    -4.756000000     4.165000000
H    -0.828000000    -4.485000000     4.765000000
H    -1.408000000    -5.701000000     4.075000000
O     6.142000000     3.030000000    -1.461000000
H     7.042000000     2.710000000    -1.396000000
H     5.604000000     2.238000000    -1.436000000
O    -2.727000000     1.103000000     4.727000000
H    -3.178000000     1.606000000     5.406000000
H    -1.900000000     0.842000000     5.132000000
O     5.560000000    -2.236000000    -4.703000000
H     5.301000000    -1.379000000    -4.363000000
H     5.531000000    -2.134000000    -5.654000000
O    -2.256000000    -6.713000000     0.644000000
H    -1.315000000    -6.684000000     0.818000000
H    -2.606000000    -7.298000000     1.316000000
O    -1.290000000     6.644000000     0.335000000
H    -1.568000000     6.037000000    -0.351000000
H    -2.024000000     7.251000000     0.430000000
O    -4.601000000     2.202000000    -0.013000000
H    -4.731000000     1.550000000     0.676000000
H    -4.198000000     1.714000000    -0.731000000
O     2.728000000     6.998000000    -2.600000000
H     2.011000000     7.263000000    -2.024000000
H     2.769000000     6.046000000    -2.509000000
O     0.624000000    -4.245000000     5.949000000
H     1.359000000    -4.401000000     6.542000000
H     1.022000000    -4.206000000     5.079000000
O     0.160000000    -3.553000000    -2.298000000
H    -0.790000000    -3.666000000    -2.257000000
H     0.485000000    -3.972000000    -1.502000000
O     6.375000000    -2.220000000    -0.570000000
H     5.432000000    -2.083000000    -0.480000000
H     6.768000000    -1.427000000    -0.204000000
O    -5.581000000    -2.359000000     1.791000000
H    -5.506000000    -1.752000000     2.528000000
H    -5.982000000    -1.841000000     1.093000000
O    -3.128000000    -3.043000000     5.572000000
H    -2.748000000    -3.569000000     4.869000000
H    -3.798000000    -2.513000000     5.140000000
O     1.577000000    -4.327000000     3.111000000
H     2.170000000    -5.035000000     3.364000000
H     1.656000000    -4.277000000     2.159000000
O     4.538000000     0.567000000    -2.154000000
H     4.224000000    -0.325000000    -2.306000000
H     3.767000000     1.118000000    -2.286000000
O    -1.989000000    -1.118000000    -2.496000000
H    -2.265000000    -2.010000000    -2.287000000
H    -1.152000000    -1.014000000    -2.043000000
O     3.780000000    -1.504000000     2.549000000
H     3.622000000    -2.055000000     1.782000000
H     2.962000000    -1.544000000     3.045000000
