161
-3060.20638
C     0.723000000     0.876000000    -0.947000000
H     1.299000000     1.444000000    -1.673000000
C     0.272000000    -0.419000000    -1.250000000
H     0.493000000    -0.882000000    -2.209000000
C    -0.317000000    -1.148000000    -0.260000000
C    -0.797000000    -2.519000000    -0.603000000
H    -0.846000000    -3.097000000     0.322000000
H    -1.819000000    -2.390000000    -0.965000000
H    -0.273000000    -3.099000000    -1.365000000
C    -0.515000000    -0.637000000     1.001000000
H    -0.724000000    -1.330000000     1.813000000
C    -0.152000000     0.680000000     1.304000000
H    -0.354000000     1.098000000     2.286000000
C     0.469000000     1.499000000     0.349000000
C     0.775000000     2.919000000     0.640000000
O     0.391000000     3.387000000     1.707000000
O     1.382000000     3.616000000    -0.154000000
O     3.037000000     7.292000000    -0.348000000
H     3.136000000     6.409000000     0.009000000
H     2.649000000     7.797000000     0.367000000
O    -4.144000000     5.000000000     0.641000000
H    -4.980000000     5.296000000     1.001000000
H    -3.817000000     4.368000000     1.281000000
O    -0.276000000     5.756000000    -2.745000000
H    -0.667000000     5.564000000    -1.893000000
H     0.293000000     6.509000000    -2.584000000
O     6.251000000     2.205000000    -3.125000000
H     5.427000000     1.975000000    -3.556000000
H     6.024000000     2.277000000    -2.198000000
O     3.014000000    -3.110000000    -6.510000000
H     2.187000000    -3.219000000    -6.981000000
H     2.779000000    -2.615000000    -5.725000000
O     3.022000000     5.047000000     1.281000000
H     2.267000000     4.668000000     0.831000000
H     3.055000000     4.588000000     2.121000000
O     0.942000000    -0.526000000     5.560000000
H     1.691000000     0.069000000     5.598000000
H     0.465000000    -0.363000000     6.375000000
O    -0.329000000     6.127000000     1.648000000
H    -0.026000000     5.219000000     1.637000000
H     0.473000000     6.647000000     1.701000000
O    -0.825000000     1.647000000     6.101000000
H    -1.312000000     1.016000000     5.571000000
H    -0.211000000     2.052000000     5.488000000
O    -0.384000000    -4.214000000     2.561000000
H    -0.434000000    -5.126000000     2.275000000
H    -1.146000000    -4.098000000     3.128000000
O    -4.959000000    -3.629000000    -4.527000000
H    -4.285000000    -2.960000000    -4.409000000
H    -4.548000000    -4.286000000    -5.089000000
O    -0.151000000    -7.460000000    -0.705000000
H    -0.269000000    -7.968000000     0.097000000
H    -0.859000000    -6.816000000    -0.688000000
O     2.072000000    -3.141000000     2.139000000
H     2.422000000    -2.772000000     2.950000000
H     1.284000000    -3.611000000     2.411000000
O     4.418000000     5.147000000    -3.725000000
H     3.728000000     5.387000000    -4.344000000
H     4.032000000     4.450000000    -3.195000000
O    -2.188000000     6.786000000    -0.443000000
H    -1.513000000     6.335000000     0.065000000
H    -2.823000000     6.102000000    -0.657000000
O    -3.307000000    -1.236000000    -3.926000000
H    -2.442000000    -1.634000000    -4.026000000
H    -3.181000000    -0.322000000    -4.180000000
O    -3.469000000     1.616000000     4.186000000
H    -2.993000000     0.790000000     4.101000000
H    -4.355000000     1.357000000     4.441000000
O    -4.825000000    -5.963000000     1.564000000
H    -5.764000000    -5.811000000     1.454000000
H    -4.477000000    -5.116000000     1.843000000
O    -0.986000000    -2.572000000    -4.551000000
H    -0.936000000    -3.524000000    -4.637000000
H    -0.092000000    -2.303000000    -4.341000000
O     3.413000000     1.819000000     3.669000000
H     2.617000000     2.348000000     3.616000000
H     3.509000000     1.623000000     4.601000000
O     5.379000000     2.422000000    -0.468000000
H     4.906000000     1.770000000     0.049000000
H     5.474000000     3.172000000     0.120000000
O    -4.310000000    -2.963000000     1.513000000
H    -5.213000000    -2.896000000     1.821000000
H    -4.337000000    -2.631000000     0.616000000
O    -5.829000000     0.012000000     1.676000000
H    -4.887000000     0.136000000     1.556000000
H    -6.202000000     0.163000000     0.807000000
O     0.491000000     3.066000000    -3.702000000
H     1.398000000     2.792000000    -3.565000000
H     0.516000000     4.021000000    -3.636000000
O    -2.273000000     3.227000000     2.248000000
H    -1.343000000     3.267000000     2.025000000
H    -2.358000000     2.439000000     2.784000000
O    -5.969000000    -0.470000000    -3.193000000
H    -6.409000000    -0.138000000    -3.975000000
H    -5.162000000    -0.867000000    -3.522000000
O     2.165000000    -7.362000000    -2.182000000
H     2.551000000    -7.913000000    -1.501000000
H     1.491000000    -6.856000000    -1.727000000
O    -4.183000000    -3.929000000    -1.988000000
H    -4.572000000    -3.923000000    -2.862000000
H    -4.784000000    -3.409000000    -1.455000000
O    -3.481000000     0.374000000     0.190000000
H    -2.650000000     0.002000000     0.485000000
H    -3.238000000     1.196000000    -0.236000000
O     2.728000000    -1.493000000     0.109000000
H     2.489000000    -2.084000000     0.823000000
H     1.932000000    -0.990000000    -0.062000000
O    -2.114000000     1.810000000    -3.257000000
H    -1.215000000     1.491000000    -3.175000000
H    -2.231000000     2.393000000    -2.507000000
O     1.941000000     4.862000000     5.244000000
H     1.220000000     5.489000000     5.296000000
H     2.729000000     5.404000000     5.226000000
O     3.973000000     1.142000000    -4.354000000
H     4.208000000     0.223000000    -4.482000000
H     3.026000000     1.168000000    -4.486000000
O     3.198000000     3.135000000    -2.062000000
H     3.938000000     2.878000000    -1.512000000
H     2.477000000     3.269000000    -1.447000000
O    -0.496000000     6.070000000     5.193000000
H    -0.535000000     7.007000000     4.998000000
H    -1.250000000     5.698000000     4.736000000
O    -0.809000000     3.873000000    -5.955000000
H    -0.649000000     3.472000000    -5.100000000
H     0.010000000     3.749000000    -6.434000000
O    -2.533000000    -5.783000000    -1.276000000
H    -2.934000000    -4.952000000    -1.530000000
H    -3.251000000    -6.416000000    -1.311000000
O     2.254000000    -2.844000000     5.103000000
H     3.004000000    -2.747000000     5.690000000
H     1.701000000    -2.087000000     5.293000000
O     1.551000000     0.782000000    -5.218000000
H     1.536000000     0.383000000    -6.088000000
H     1.134000000     1.634000000    -5.338000000
O     3.855000000    -2.867000000    -2.287000000
H     3.898000000    -3.754000000    -1.929000000
H     3.776000000    -2.302000000    -1.519000000
O    -2.688000000    -3.749000000     4.020000000
H    -3.380000000    -4.123000000     4.565000000
H    -3.132000000    -3.489000000     3.213000000
O    -3.216000000     5.080000000     4.144000000
H    -2.878000000     4.513000000     3.451000000
H    -3.400000000     5.911000000     3.706000000
O    -1.905000000    -0.598000000     4.516000000
H    -1.114000000    -1.076000000     4.764000000
H    -2.569000000    -1.277000000     4.398000000
O     1.638000000    -2.154000000    -4.128000000
H     1.614000000    -1.203000000    -4.237000000
H     2.350000000    -2.305000000    -3.506000000
O     3.850000000     0.677000000     1.194000000
H     3.397000000    -0.146000000     1.009000000
H     3.688000000     0.836000000     2.124000000
O    -2.252000000    -6.411000000     1.351000000
H    -2.012000000    -5.715000000     0.739000000
H    -3.187000000    -6.282000000     1.507000000
O    -5.115000000    -1.489000000    -0.890000000
H    -4.668000000    -0.745000000    -0.487000000
H    -5.429000000    -1.154000000    -1.730000000
O     0.517000000     2.746000000     4.254000000
H     0.902000000     3.456000000     4.768000000
H     0.412000000     3.115000000     3.377000000
