161
-3023.87682
C     1.044000000     0.889000000    -0.382000000
H     1.828000000     1.416000000    -0.919000000
C     0.982000000    -0.457000000    -0.670000000
H     1.771000000    -0.900000000    -1.272000000
C    -0.049000000    -1.226000000    -0.139000000
C    -0.040000000    -2.655000000    -0.583000000
H    -0.330000000    -2.706000000    -1.635000000
H     1.015000000    -2.901000000    -0.448000000
H    -0.665000000    -3.319000000     0.018000000
C    -1.073000000    -0.624000000     0.591000000
H    -1.949000000    -1.182000000     0.911000000
C    -1.046000000     0.766000000     0.849000000
H    -1.886000000     1.218000000     1.370000000
C     0.109000000     1.503000000     0.439000000
C     0.101000000     2.999000000     0.660000000
O    -0.906000000     3.562000000     0.901000000
O     1.093000000     3.621000000     0.306000000
O     3.130000000    -2.519000000     3.409000000
H     3.098000000    -3.219000000     4.061000000
H     2.325000000    -2.627000000     2.902000000
O    -1.746000000     1.277000000    -2.090000000
H    -2.400000000     1.930000000    -1.842000000
H    -1.540000000     0.822000000    -1.273000000
O    -4.148000000     2.661000000    -0.923000000
H    -5.019000000     3.055000000    -0.966000000
H    -4.279000000     1.841000000    -0.447000000
O    -1.245000000     6.000000000    -2.952000000
H    -1.715000000     6.491000000    -3.626000000
H    -1.848000000     5.976000000    -2.209000000
O     4.968000000     5.923000000     1.508000000
H     5.427000000     6.618000000     1.979000000
H     5.010000000     5.168000000     2.094000000
O    -4.305000000    -4.980000000     3.224000000
H    -3.954000000    -5.082000000     2.339000000
H    -3.602000000    -5.285000000     3.797000000
O    -4.259000000     6.788000000     1.198000000
H    -3.632000000     6.713000000     1.917000000
H    -3.807000000     6.406000000     0.445000000
O     6.339000000     1.792000000    -2.443000000
H     7.089000000     2.271000000    -2.091000000
H     5.739000000     1.707000000    -1.702000000
O    -4.483000000     4.358000000     3.200000000
H    -4.542000000     3.960000000     2.332000000
H    -3.560000000     4.274000000     3.440000000
O    -3.424000000    -1.307000000     4.547000000
H    -3.107000000    -1.679000000     5.370000000
H    -2.868000000    -1.701000000     3.876000000
O     2.035000000    -6.404000000    -1.045000000
H     1.248000000    -6.761000000    -1.456000000
H     2.365000000    -5.763000000    -1.676000000
O     5.269000000    -4.352000000     0.721000000
H     5.697000000    -4.653000000     1.523000000
H     5.685000000    -3.512000000     0.528000000
O     0.259000000    -2.441000000     5.033000000
H     0.896000000    -2.970000000     5.513000000
H     0.792000000    -1.858000000     4.491000000
O    -0.030000000    -6.392000000     0.927000000
H     0.079000000    -7.321000000     0.722000000
H     0.748000000    -5.973000000     0.559000000
O    -4.828000000     0.046000000    -0.095000000
H    -5.071000000     0.135000000     0.827000000
H    -5.394000000    -0.652000000    -0.425000000
O     3.024000000     4.576000000     3.995000000
H     2.646000000     5.247000000     4.563000000
H     2.401000000     4.495000000     3.273000000
O     3.487000000     3.863000000    -2.897000000
H     2.707000000     4.256000000    -2.505000000
H     3.896000000     3.376000000    -2.182000000
O    -0.107000000    -7.312000000    -2.404000000
H    -0.631000000    -6.622000000    -2.812000000
H    -0.744000000    -7.846000000    -1.928000000
O     2.286000000    -2.256000000    -4.214000000
H     2.267000000    -2.460000000    -5.149000000
H     2.562000000    -1.340000000    -4.174000000
O    -4.910000000    -4.606000000    -1.134000000
H    -5.299000000    -4.131000000    -0.400000000
H    -4.287000000    -5.208000000    -0.727000000
O    -1.679000000    -3.178000000     2.758000000
H    -1.148000000    -2.445000000     3.069000000
H    -1.131000000    -3.949000000     2.902000000
O     0.588000000     2.527000000     5.355000000
H     0.086000000     1.805000000     4.977000000
H     0.030000000     2.866000000     6.055000000
O    -0.773000000     1.902000000    -4.690000000
H    -1.510000000     2.413000000    -5.023000000
H    -1.113000000     1.475000000    -3.904000000
O    -1.909000000    -1.099000000    -3.811000000
H    -2.485000000    -1.817000000    -3.547000000
H    -1.640000000    -0.693000000    -2.988000000
O    -1.997000000     3.432000000     3.336000000
H    -1.675000000     2.663000000     3.806000000
H    -1.654000000     3.332000000     2.448000000
O    -1.516000000     6.134000000     4.749000000
H    -2.080000000     5.513000000     5.210000000
H    -1.572000000     6.938000000     5.266000000
O    -0.154000000    -5.520000000     3.518000000
H     0.032000000    -5.798000000     2.621000000
H     0.477000000    -6.001000000     4.054000000
O     4.940000000    -1.584000000    -1.588000000
H     4.956000000    -0.874000000    -0.946000000
H     5.837000000    -1.920000000    -1.596000000
O     2.142000000     1.818000000    -5.315000000
H     1.202000000     1.847000000    -5.139000000
H     2.481000000     1.165000000    -4.702000000
O     0.899000000    -0.100000000     3.221000000
H     0.500000000    -0.043000000     2.353000000
H     1.431000000     0.693000000     3.292000000
O    -1.326000000     7.961000000     0.054000000
H    -1.178000000     7.239000000     0.665000000
H    -2.036000000     7.655000000    -0.511000000
O     5.156000000    -5.624000000    -1.606000000
H     4.617000000    -5.104000000    -2.202000000
H     5.024000000    -5.219000000    -0.748000000
O     2.512000000     6.973000000     0.319000000
H     1.846000000     6.309000000     0.141000000
H     3.171000000     6.517000000     0.842000000
O    -5.373000000     1.848000000     3.994000000
H    -5.520000000     1.840000000     4.939000000
H    -5.108000000     2.747000000     3.800000000
O     3.681000000     3.338000000     0.675000000
H     2.733000000     3.444000000     0.600000000
H     3.869000000     2.526000000     0.204000000
O    -2.468000000    -5.019000000     0.976000000
H    -2.003000000    -4.273000000     1.355000000
H    -1.775000000    -5.620000000     0.705000000
O     3.638000000     0.242000000    -3.498000000
H     3.963000000    -0.448000000    -2.919000000
H     4.385000000     0.829000000    -3.614000000
O    -2.009000000     1.053000000     4.592000000
H    -2.694000000     0.390000000     4.500000000
H    -1.910000000     1.165000000     5.537000000
O    -1.227000000     5.971000000     1.962000000
H    -1.018000000     5.050000000     1.808000000
H    -1.424000000     6.019000000     2.897000000
O    -1.794000000    -5.526000000    -3.752000000
H    -1.881000000    -5.734000000    -4.682000000
H    -2.549000000    -4.969000000    -3.559000000
O     2.970000000    -3.829000000    -1.968000000
H     3.116000000    -3.096000000    -1.371000000
H     2.760000000    -3.417000000    -2.806000000
O    -4.262000000    -4.182000000    -3.769000000
H    -4.916000000    -4.805000000    -4.087000000
H    -4.391000000    -4.162000000    -2.820000000
O    -6.567000000     0.941000000     1.717000000
H    -6.177000000     1.225000000     2.544000000
H    -6.866000000     1.750000000     1.302000000
O     4.815000000     0.904000000     0.028000000
H     4.003000000     0.488000000     0.318000000
H     5.205000000     1.251000000     0.830000000
O     2.251000000    -4.615000000     1.204000000
H     2.645000000    -4.956000000     0.401000000
H     2.944000000    -4.689000000     1.861000000
O    -2.736000000     5.371000000    -0.377000000
H    -3.144000000     4.507000000    -0.427000000
H    -1.926000000     5.225000000     0.111000000
O    -0.760000000    -0.695000000    -6.079000000
H    -0.797000000     0.250000000    -5.933000000
H    -1.149000000    -1.075000000    -5.292000000
O     1.147000000     5.219000000    -2.000000000
H     0.278000000     5.474000000    -2.310000000
H     0.978000000     4.551000000    -1.336000000
