161
-3071.26346
C    -1.091000000     0.890000000     0.539000000
H    -1.764000000     1.488000000     1.148000000
C     0.167000000     0.613000000     1.135000000
H     0.514000000     1.109000000     2.038000000
C     1.024000000    -0.267000000     0.575000000
C     2.222000000    -0.713000000     1.372000000
H     2.829000000     0.043000000     1.874000000
H     1.915000000    -1.402000000     2.162000000
H     2.831000000    -1.288000000     0.671000000
C     0.786000000    -0.779000000    -0.684000000
H     1.498000000    -1.435000000    -1.177000000
C    -0.359000000    -0.432000000    -1.371000000
H    -0.514000000    -0.816000000    -2.376000000
C    -1.330000000     0.407000000    -0.795000000
C    -2.598000000     0.770000000    -1.518000000
O    -2.722000000     0.439000000    -2.680000000
O    -3.402000000     1.381000000    -0.911000000
O     6.653000000    -2.023000000    -1.159000000
H     6.892000000    -1.658000000    -0.306000000
H     7.357000000    -1.744000000    -1.744000000
O     4.314000000     1.260000000     4.151000000
H     5.016000000     1.098000000     3.521000000
H     4.001000000     2.140000000     3.939000000
O    -0.435000000     2.190000000    -3.242000000
H    -0.907000000     1.406000000    -2.962000000
H    -0.573000000     2.227000000    -4.188000000
O     1.383000000     1.495000000     4.860000000
H     2.331000000     1.587000000     4.949000000
H     1.117000000     2.250000000     4.333000000
O    -3.614000000    -0.507000000     1.194000000
H    -4.037000000    -0.112000000     1.956000000
H    -3.736000000     0.133000000     0.493000000
O    -2.784000000    -1.831000000    -3.803000000
H    -2.654000000    -0.916000000    -3.555000000
H    -3.720000000    -1.984000000    -3.673000000
O     4.591000000     2.923000000     0.804000000
H     4.676000000     2.145000000     1.354000000
H     5.471000000     3.298000000     0.781000000
O    -2.089000000    -3.453000000    -1.726000000
H    -1.743000000    -2.907000000    -1.021000000
H    -2.226000000    -2.847000000    -2.454000000
O     6.150000000     0.711000000     2.143000000
H     6.414000000    -0.128000000     1.767000000
H     6.961000000     1.217000000     2.191000000
O    -0.853000000    -1.090000000    -5.687000000
H    -1.452000000    -1.559000000    -5.107000000
H    -0.104000000    -0.873000000    -5.132000000
O    -1.067000000     4.821000000     5.146000000
H    -0.838000000     5.598000000     5.656000000
H    -0.266000000     4.605000000     4.667000000
O    -6.408000000     1.260000000    -6.264000000
H    -5.544000000     1.396000000    -5.875000000
H    -6.962000000     0.993000000    -5.530000000
O     2.815000000     4.863000000     2.056000000
H     2.360000000     5.399000000     1.407000000
H     3.459000000     4.368000000     1.549000000
O     0.711000000     6.056000000     0.395000000
H     0.101000000     6.586000000     0.908000000
H     0.322000000     5.181000000     0.390000000
O    -5.614000000     0.345000000    -1.782000000
H    -6.227000000     0.637000000    -1.107000000
H    -4.802000000     0.814000000    -1.588000000
O    -3.976000000     1.310000000    -4.876000000
H    -3.746000000     0.729000000    -5.601000000
H    -3.655000000     0.859000000    -4.095000000
O    -1.749000000     2.740000000    -6.035000000
H    -2.293000000     3.419000000    -5.636000000
H    -2.326000000     1.980000000    -6.104000000
O     4.357000000    -3.443000000     0.592000000
H     3.620000000    -3.888000000     1.011000000
H     4.311000000    -3.715000000    -0.325000000
O    -2.536000000     6.660000000     0.019000000
H    -3.035000000     6.789000000     0.825000000
H    -2.175000000     5.777000000     0.098000000
O    -2.970000000     2.829000000     4.322000000
H    -2.736000000     3.681000000     4.690000000
H    -2.159000000     2.322000000     4.356000000
O    -4.163000000     3.508000000     0.324000000
H    -3.974000000     2.600000000     0.089000000
H    -4.625000000     3.861000000    -0.436000000
O     6.243000000    -1.914000000     1.533000000
H     6.532000000    -2.430000000     2.285000000
H     5.449000000    -2.356000000     1.231000000
O    -5.435000000     4.421000000     2.920000000
H    -4.680000000     4.209000000     2.372000000
H    -6.070000000     3.731000000     2.731000000
O     0.105000000    -2.185000000     3.858000000
H    -0.821000000    -1.961000000     3.954000000
H     0.487000000    -1.999000000     4.715000000
O     2.577000000    -4.154000000    -1.900000000
H     1.673000000    -4.417000000    -1.723000000
H     2.497000000    -3.410000000    -2.496000000
O    -2.683000000    -1.820000000     4.148000000
H    -2.445000000    -1.155000000     4.794000000
H    -3.351000000    -1.400000000     3.607000000
O    -5.181000000    -2.302000000    -0.317000000
H    -4.557000000    -1.794000000     0.201000000
H    -5.510000000    -1.685000000    -0.970000000
O    -3.166000000     3.527000000    -3.420000000
H    -3.603000000     2.797000000    -3.858000000
H    -2.455000000     3.119000000    -2.925000000
O     0.189000000     3.674000000    -1.156000000
H     0.001000000     3.230000000    -1.983000000
H     1.104000000     3.947000000    -1.234000000
O    -4.386000000     0.492000000     3.587000000
H    -4.048000000     1.327000000     3.910000000
H    -5.162000000     0.324000000     4.122000000
O     1.643000000    -0.595000000    -4.067000000
H     1.407000000    -1.520000000    -4.127000000
H     2.491000000    -0.592000000    -3.623000000
O     4.668000000    -3.094000000    -4.936000000
H     5.622000000    -3.165000000    -4.959000000
H     4.484000000    -2.600000000    -4.137000000
O    -5.537000000     3.973000000    -2.105000000
H    -4.697000000     3.791000000    -2.526000000
H    -6.131000000     4.166000000    -2.831000000
O    -0.994000000     0.257000000     5.739000000
H    -1.460000000     0.869000000     6.309000000
H    -0.227000000     0.746000000     5.439000000
O    -1.540000000     4.087000000     1.159000000
H    -1.135000000     3.332000000     0.733000000
H    -2.479000000     3.901000000     1.134000000
O     3.253000000    -1.385000000     4.897000000
H     3.545000000    -0.619000000     4.403000000
H     3.460000000    -2.128000000     4.331000000
O    -7.321000000     0.987000000     0.279000000
H    -7.808000000     0.207000000     0.544000000
H    -7.296000000     1.531000000     1.067000000
O     0.754000000     3.934000000     3.302000000
H     1.478000000     4.366000000     2.848000000
H     0.030000000     3.958000000     2.677000000
O     1.516000000    -4.043000000     2.395000000
H     1.104000000    -3.270000000     2.779000000
H     0.798000000    -4.507000000     1.964000000
O     2.884000000     3.721000000    -1.401000000
H     3.502000000     3.853000000    -2.120000000
H     3.428000000     3.432000000    -0.668000000
O     0.668000000    -5.731000000    -0.607000000
H    -0.022000000    -6.076000000    -1.175000000
H     0.340000000    -5.876000000     0.281000000
O     2.293000000     1.154000000    -6.163000000
H     2.361000000     0.832000000    -5.264000000
H     2.248000000     2.106000000    -6.073000000
O    -7.202000000     0.628000000    -3.807000000
H    -7.534000000     1.445000000    -3.435000000
H    -6.617000000     0.279000000    -3.135000000
O     0.602000000    -3.385000000    -3.544000000
H     0.366000000    -3.909000000    -4.310000000
H    -0.189000000    -3.380000000    -3.005000000
O    -1.467000000    -2.475000000     1.253000000
H    -1.913000000    -1.637000000     1.377000000
H    -0.560000000    -2.303000000     1.508000000
O     2.268000000    -1.869000000     7.316000000
H     2.773000000    -1.342000000     7.935000000
H     2.373000000    -1.420000000     6.477000000
O     3.379000000    -5.536000000     4.090000000
H     2.713000000    -5.262000000     3.460000000
H     2.885000000    -5.765000000     4.877000000
O     4.023000000    -1.458000000    -2.461000000
H     4.487000000    -1.565000000    -1.630000000
H     4.366000000    -0.641000000    -2.823000000
