161
-3009.57791
C    -0.148000000     0.991000000     1.116000000
H    -0.237000000     1.636000000     1.987000000
C     0.790000000    -0.003000000     1.063000000
H     1.548000000     0.023000000     1.843000000
C     0.919000000    -0.778000000    -0.082000000
C     1.982000000    -1.808000000    -0.130000000
H     2.917000000    -1.520000000    -0.615000000
H     2.174000000    -2.156000000     0.887000000
H     1.537000000    -2.620000000    -0.709000000
C     0.026000000    -0.699000000    -1.123000000
H     0.123000000    -1.375000000    -1.969000000
C    -1.043000000     0.181000000    -1.039000000
H    -1.787000000     0.220000000    -1.830000000
C    -1.105000000     1.076000000     0.100000000
C    -2.170000000     2.083000000     0.083000000
O    -3.113000000     1.930000000    -0.630000000
O    -2.411000000     2.821000000     1.054000000
O    -0.211000000     6.306000000    -0.935000000
H    -0.128000000     7.161000000    -0.511000000
H    -0.459000000     5.711000000    -0.228000000
O    -2.013000000    -2.688000000    -5.961000000
H    -2.825000000    -2.534000000    -5.479000000
H    -1.482000000    -3.223000000    -5.371000000
O     4.106000000     0.985000000    -2.169000000
H     3.699000000     1.028000000    -3.035000000
H     3.373000000     1.052000000    -1.557000000
O    -5.391000000     1.056000000    -1.319000000
H    -4.604000000     1.574000000    -1.148000000
H    -5.128000000     0.438000000    -2.001000000
O     6.732000000     0.402000000    -1.804000000
H     7.040000000     0.888000000    -1.040000000
H     5.836000000     0.711000000    -1.940000000
O     4.572000000    -1.369000000     2.736000000
H     4.328000000    -0.563000000     3.190000000
H     4.120000000    -2.062000000     3.217000000
O     6.180000000     0.430000000     1.344000000
H     5.451000000    -0.095000000     1.674000000
H     6.769000000    -0.207000000     0.938000000
O    -2.684000000    -1.426000000     2.927000000
H    -3.063000000    -0.553000000     2.832000000
H    -1.887000000    -1.288000000     3.440000000
O     2.023000000    -4.421000000    -3.424000000
H     1.119000000    -4.158000000    -3.252000000
H     2.283000000    -4.908000000    -2.642000000
O    -2.753000000     3.403000000    -3.168000000
H    -2.950000000     2.900000000    -2.378000000
H    -1.959000000     2.999000000    -3.517000000
O    -4.602000000     4.279000000    -4.995000000
H    -4.638000000     5.207000000    -4.764000000
H    -4.044000000     3.886000000    -4.324000000
O    -4.008000000     5.839000000     5.230000000
H    -3.402000000     6.032000000     5.945000000
H    -3.583000000     5.134000000     4.740000000
O    -1.560000000    -4.239000000    -3.664000000
H    -2.282000000    -4.132000000    -3.045000000
H    -1.132000000    -5.052000000    -3.394000000
O     4.387000000     2.386000000     3.348000000
H     3.679000000     2.221000000     3.971000000
H     5.170000000     2.048000000     3.782000000
O    -6.701000000     1.040000000     1.106000000
H    -6.189000000     1.759000000     1.477000000
H    -6.212000000     0.775000000     0.327000000
O    -1.963000000    -4.052000000     1.094000000
H    -2.596000000    -3.438000000     0.724000000
H    -2.286000000    -4.226000000     1.978000000
O     1.546000000    -1.443000000    -5.738000000
H     1.613000000    -0.537000000    -6.041000000
H     1.264000000    -1.934000000    -6.510000000
O    -1.401000000     3.521000000     6.459000000
H    -1.034000000     2.711000000     6.105000000
H    -0.680000000     4.149000000     6.418000000
O    -3.242000000     8.009000000     0.543000000
H    -3.452000000     7.241000000     1.073000000
H    -2.432000000     8.349000000     0.922000000
O    -2.654000000     4.118000000     3.455000000
H    -2.320000000     3.665000000     2.681000000
H    -2.162000000     3.742000000     4.185000000
O    -0.875000000     6.674000000     2.936000000
H    -1.133000000     5.941000000     2.378000000
H    -1.647000000     7.240000000     2.960000000
O    -3.767000000    -3.466000000    -1.719000000
H    -3.869000000    -2.741000000    -1.103000000
H    -3.761000000    -4.249000000    -1.169000000
O     2.922000000     1.623000000     5.363000000
H     1.986000000     1.722000000     5.189000000
H     2.967000000     1.329000000     6.273000000
O     0.630000000    -5.128000000     0.471000000
H     1.475000000    -4.727000000     0.675000000
H     0.001000000    -4.409000000     0.534000000
O    -6.636000000     3.869000000    -2.105000000
H    -6.018000000     3.459000000    -2.710000000
H    -6.159000000     3.929000000    -1.278000000
O     5.083000000    -3.768000000     0.255000000
H     5.989000000    -4.039000000     0.104000000
H     5.114000000    -2.811000000     0.242000000
O     1.245000000    -3.459000000     4.212000000
H     1.063000000    -4.398000000     4.246000000
H     1.976000000    -3.378000000     3.600000000
O     3.084000000    -4.571000000     2.166000000
H     3.785000000    -4.384000000     1.542000000
H     3.488000000    -5.144000000     2.816000000
O     4.191000000    -0.971000000    -4.896000000
H     3.276000000    -0.750000000    -5.066000000
H     4.186000000    -1.354000000    -4.019000000
O    -4.208000000    -0.036000000    -3.537000000
H    -4.668000000    -0.470000000    -4.255000000
H    -3.343000000     0.167000000    -3.893000000
O    -0.470000000     4.678000000     1.173000000
H    -1.143000000     4.029000000     0.965000000
H     0.330000000     4.166000000     1.285000000
O    -7.837000000     1.385000000    -2.588000000
H    -7.177000000     1.243000000    -1.909000000
H    -7.333000000     1.634000000    -3.363000000
O     3.260000000    -5.725000000    -1.440000000
H     3.911000000    -5.377000000    -0.831000000
H     2.880000000    -6.475000000    -0.981000000
O    -3.713000000    -1.659000000     0.221000000
H    -3.176000000    -1.550000000     1.006000000
H    -3.401000000    -0.981000000    -0.379000000
O     4.607000000    -3.901000000    -4.704000000
H     3.860000000    -4.188000000    -4.178000000
H     4.355000000    -3.036000000    -5.026000000
O    -0.440000000    -1.419000000     4.488000000
H    -0.618000000    -1.457000000     5.428000000
H     0.214000000    -2.103000000     4.341000000
O    -3.742000000     6.007000000     1.942000000
H    -4.565000000     6.170000000     2.404000000
H    -3.374000000     5.236000000     2.374000000
O    -4.012000000     1.104000000     2.693000000
H    -4.780000000     1.622000000     2.934000000
H    -3.391000000     1.744000000     2.346000000
O     4.523000000     2.681000000     0.610000000
H     4.853000000     2.553000000     1.499000000
H     5.020000000     2.059000000     0.078000000
O     1.961000000     3.605000000     1.244000000
H     2.175000000     4.114000000     0.462000000
H     2.621000000     2.912000000     1.267000000
O    -5.091000000     4.173000000     0.170000000
H    -4.347000000     3.571000000     0.150000000
H    -4.798000000     4.898000000     0.722000000
O     0.841000000    -6.103000000     3.235000000
H     0.364000000    -6.903000000     3.016000000
H     1.273000000    -5.851000000     2.419000000
O    -1.262000000    -0.270000000    -4.433000000
H    -0.568000000    -0.879000000    -4.178000000
H    -1.535000000    -0.568000000    -5.301000000
O    -0.447000000     2.247000000    -4.164000000
H     0.479000000     2.030000000    -4.273000000
H    -0.904000000     1.414000000    -4.276000000
O    -2.979000000     5.850000000    -2.127000000
H    -2.227000000     6.079000000    -1.582000000
H    -2.778000000     4.975000000    -2.459000000
O    -6.162000000     2.640000000     3.694000000
H    -7.117000000     2.595000000     3.751000000
H    -5.983000000     3.521000000     3.367000000
O    -0.989000000    -7.273000000    -0.097000000
H    -0.979000000    -7.884000000     0.640000000
H    -0.451000000    -6.537000000     0.196000000
O    -0.013000000     1.362000000     5.504000000
H    -0.298000000     0.655000000     4.926000000
H     0.263000000     0.919000000     6.307000000
