161
-3033.07535
C    -1.200000000     0.474000000     0.719000000
H    -2.026000000     0.748000000     1.371000000
C     0.042000000     0.353000000     1.244000000
H     0.348000000     0.638000000     2.247000000
C     1.113000000    -0.151000000     0.466000000
C     2.518000000    -0.400000000     1.074000000
H     2.281000000    -0.426000000     2.140000000
H     2.867000000    -1.343000000     0.650000000
H     3.163000000     0.450000000     0.840000000
C     0.916000000    -0.400000000    -0.872000000
H     1.777000000    -0.582000000    -1.510000000
C    -0.344000000    -0.210000000    -1.466000000
H    -0.438000000    -0.235000000    -2.549000000
C    -1.399000000     0.220000000    -0.640000000
C    -2.817000000     0.210000000    -1.104000000
O    -3.095000000    -0.005000000    -2.235000000
O    -3.700000000     0.651000000    -0.377000000
O     2.491000000     0.369000000     4.789000000
H     2.038000000     0.939000000     4.168000000
H     3.416000000     0.448000000     4.557000000
O    -2.449000000     1.359000000    -4.484000000
H    -2.662000000     0.960000000    -3.640000000
H    -3.286000000     1.404000000    -4.946000000
O     0.974000000     0.885000000     7.072000000
H     0.487000000     1.696000000     6.924000000
H     1.451000000     0.740000000     6.255000000
O    -4.165000000    -1.686000000     1.069000000
H    -4.748000000    -1.217000000     1.666000000
H    -3.935000000    -1.039000000     0.401000000
O    -2.377000000    -2.488000000    -2.435000000
H    -2.583000000    -1.553000000    -2.432000000
H    -3.217000000    -2.917000000    -2.600000000
O    -5.183000000    -4.171000000     0.430000000
H    -5.899000000    -3.998000000     1.042000000
H    -4.620000000    -3.400000000     0.497000000
O     1.611000000     2.432000000    -5.372000000
H     1.057000000     1.658000000    -5.478000000
H     1.109000000     3.142000000    -5.771000000
O     3.283000000     3.256000000     1.205000000
H     2.707000000     3.232000000     0.441000000
H     4.140000000     2.994000000     0.866000000
O    -0.315000000    -3.611000000    -0.627000000
H    -0.153000000    -2.727000000    -0.296000000
H    -0.584000000    -3.480000000    -1.537000000
O     4.921000000    -0.035000000     3.897000000
H     5.347000000     0.805000000     4.070000000
H     5.100000000    -0.560000000     4.677000000
O     5.243000000    -2.651000000     2.489000000
H     5.155000000    -1.780000000     2.876000000
H     5.094000000    -2.513000000     1.554000000
O    -0.480000000    -2.349000000    -4.587000000
H    -1.237000000    -2.730000000    -4.143000000
H     0.200000000    -3.020000000    -4.520000000
O    -2.979000000     4.764000000     3.235000000
H    -2.208000000     5.245000000     2.935000000
H    -3.352000000     4.388000000     2.437000000
O    -5.250000000    -2.201000000    -6.893000000
H    -5.118000000    -1.815000000    -6.027000000
H    -4.386000000    -2.168000000    -7.304000000
O     1.509000000     2.716000000    -1.522000000
H     1.167000000     2.191000000    -0.798000000
H     2.404000000     2.399000000    -1.646000000
O    -6.424000000     1.091000000    -0.345000000
H    -6.573000000     0.612000000     0.470000000
H    -5.483000000     1.009000000    -0.501000000
O    -5.070000000    -0.236000000    -4.834000000
H    -5.840000000    -0.019000000    -4.308000000
H    -4.464000000    -0.642000000    -4.215000000
O    -4.936000000     2.267000000    -5.988000000
H    -5.824000000     2.404000000    -6.317000000
H    -4.879000000     1.324000000    -5.835000000
O     1.120000000    -4.416000000     1.753000000
H     1.407000000    -5.244000000     1.366000000
H     0.400000000    -4.127000000     1.193000000
O     3.675000000    -2.230000000    -2.521000000
H     3.006000000    -2.232000000    -3.205000000
H     4.389000000    -1.708000000    -2.886000000
O    -5.308000000     5.007000000     0.643000000
H    -4.803000000     4.215000000     0.828000000
H    -6.013000000     4.713000000     0.068000000
O    -6.842000000    -2.815000000    -2.971000000
H    -7.705000000    -3.084000000    -3.285000000
H    -6.936000000    -1.881000000    -2.784000000
O    -1.063000000     1.499000000     4.440000000
H    -0.548000000     2.208000000     4.054000000
H    -1.358000000     1.847000000     5.281000000
O    -4.181000000     2.589000000     1.469000000
H    -3.854000000     2.261000000     0.631000000
H    -3.965000000     1.899000000     2.097000000
O     2.945000000    -3.681000000     3.683000000
H     3.719000000    -3.357000000     3.223000000
H     2.419000000    -4.099000000     3.001000000
O    -4.168000000     3.164000000     5.146000000
H    -3.659000000     3.759000000     4.595000000
H    -3.783000000     2.302000000     4.988000000
O    -0.404000000    -1.672000000     4.447000000
H    -0.498000000    -1.507000000     5.385000000
H    -0.073000000    -0.848000000     4.091000000
O     6.403000000    -5.116000000     1.151000000
H     6.182000000    -4.283000000     0.735000000
H     5.709000000    -5.254000000     1.795000000
O     5.750000000     0.766000000    -0.112000000
H     5.882000000     0.296000000    -0.935000000
H     6.272000000     0.281000000     0.528000000
O    -0.091000000     0.228000000    -5.442000000
H    -0.204000000    -0.612000000    -4.998000000
H    -0.903000000     0.704000000    -5.265000000
O    -5.316000000     2.423000000    -2.813000000
H    -4.687000000     1.773000000    -2.501000000
H    -5.015000000     3.249000000    -2.434000000
O    -0.950000000     3.741000000    -2.881000000
H    -0.993000000     3.473000000    -3.799000000
H    -0.044000000     3.572000000    -2.625000000
O    -3.464000000     0.646000000     3.518000000
H    -2.545000000     0.874000000     3.657000000
H    -3.623000000    -0.085000000     4.116000000
O     1.401000000    -4.564000000    -4.121000000
H     1.795000000    -4.679000000    -3.256000000
H     2.112000000    -4.227000000    -4.666000000
O     4.552000000    -3.771000000    -0.542000000
H     4.141000000    -4.552000000    -0.913000000
H     4.242000000    -3.052000000    -1.093000000
O     3.416000000     0.510000000    -4.481000000
H     2.707000000     1.127000000    -4.661000000
H     4.185000000     0.901000000    -4.896000000
O     6.079000000     3.188000000     1.049000000
H     5.894000000     2.305000000     0.731000000
H     7.003000000     3.328000000     0.844000000
O    -7.354000000     3.834000000    -0.622000000
H    -7.754000000     3.752000000     0.244000000
H    -7.303000000     2.935000000    -0.948000000
O     3.099000000    -2.081000000     5.959000000
H     2.896000000    -1.168000000     5.757000000
H     3.049000000    -2.530000000     5.115000000
O    -6.464000000    -0.277000000     2.162000000
H    -7.217000000    -0.845000000     2.326000000
H    -6.564000000     0.440000000     2.788000000
O     1.618000000     2.644000000     3.361000000
H     2.063000000     2.761000000     2.522000000
H     2.073000000     3.238000000     3.958000000
O     4.039000000     2.062000000    -2.012000000
H     4.819000000     2.015000000    -1.459000000
H     4.177000000     1.387000000    -2.677000000
O     7.663000000    -0.778000000     1.513000000
H     7.889000000    -0.022000000     2.055000000
H     8.000000000    -1.531000000     1.999000000
O    -4.439000000    -4.088000000    -3.019000000
H    -5.273000000    -3.619000000    -3.036000000
H    -4.459000000    -4.641000000    -3.800000000
O    -7.150000000    -0.075000000    -2.707000000
H    -8.010000000     0.329000000    -2.821000000
H    -6.702000000     0.489000000    -2.078000000
O    -1.540000000    -2.498000000     1.939000000
H    -2.366000000    -2.129000000     1.627000000
H    -1.495000000    -2.240000000     2.860000000
O     3.802000000    -6.033000000     1.654000000
H     3.218000000    -6.701000000     1.294000000
H     3.915000000    -5.405000000     0.941000000
O     3.006000000    -2.237000000    -5.174000000
H     3.859000000    -2.672000000    -5.173000000
H     3.202000000    -1.325000000    -4.957000000
