161
-3028.98522
C    -0.870000000     0.801000000     0.861000000
H    -1.383000000     1.425000000     1.589000000
C     0.459000000     0.528000000     1.103000000
H     0.859000000     1.024000000     1.984000000
C     1.209000000    -0.122000000     0.157000000
C     2.684000000    -0.296000000     0.345000000
H     2.870000000     0.083000000     1.353000000
H     3.054000000    -1.323000000     0.364000000
H     3.317000000     0.265000000    -0.346000000
C     0.580000000    -0.788000000    -0.836000000
H     1.225000000    -1.408000000    -1.453000000
C    -0.811000000    -0.659000000    -1.039000000
H    -1.345000000    -1.063000000    -1.894000000
C    -1.609000000     0.079000000    -0.145000000
C    -3.038000000     0.366000000    -0.548000000
O    -3.427000000     0.015000000    -1.655000000
O    -3.770000000     1.073000000     0.156000000
O     7.125000000    -2.912000000    -0.741000000
H     6.737000000    -2.039000000    -0.807000000
H     6.410000000    -3.469000000    -0.433000000
O     2.662000000     1.446000000     3.678000000
H     2.738000000     2.233000000     4.218000000
H     3.543000000     1.309000000     3.329000000
O    -2.498000000     0.047000000    -3.977000000
H    -2.555000000    -0.005000000    -3.023000000
H    -2.433000000     0.984000000    -4.162000000
O    -5.826000000    -1.133000000     1.405000000
H    -5.222000000    -1.875000000     1.388000000
H    -5.510000000    -0.551000000     0.713000000
O     5.160000000     0.216000000     3.196000000
H     5.298000000    -0.413000000     3.904000000
H     4.878000000    -0.317000000     2.453000000
O     1.749000000     2.767000000    -2.161000000
H     1.703000000     1.864000000    -2.475000000
H     2.684000000     2.931000000    -2.039000000
O     0.768000000     4.502000000     1.436000000
H     0.423000000     4.120000000     0.629000000
H     1.482000000     5.071000000     1.146000000
O    -3.625000000    -2.817000000     2.173000000
H    -4.106000000    -3.205000000     2.904000000
H    -3.071000000    -3.527000000     1.849000000
O     6.795000000     2.457000000     2.524000000
H     6.185000000     2.993000000     3.031000000
H     6.481000000     1.560000000     2.643000000
O     1.924000000    -2.734000000    -3.714000000
H     2.548000000    -3.088000000    -4.348000000
H     2.299000000    -2.953000000    -2.861000000
O    -4.850000000     4.154000000    -4.859000000
H    -4.958000000     3.706000000    -4.021000000
H    -4.517000000     3.480000000    -5.451000000
O    -3.130000000     3.651000000     4.265000000
H    -3.796000000     3.012000000     4.010000000
H    -3.598000000     4.274000000     4.821000000
O    -2.572000000    -2.977000000    -3.533000000
H    -2.738000000    -2.035000000    -3.583000000
H    -3.420000000    -3.358000000    -3.305000000
O    -0.260000000     4.219000000    -1.078000000
H    -0.525000000     4.777000000    -1.809000000
H     0.387000000     3.622000000    -1.454000000
O    -6.444000000     1.716000000    -0.103000000
H    -6.654000000     2.645000000    -0.004000000
H    -5.523000000     1.651000000     0.150000000
O    -4.797000000    -2.208000000    -1.050000000
H    -4.335000000    -2.485000000    -0.259000000
H    -4.367000000    -1.391000000    -1.305000000
O    -4.890000000    -0.295000000    -5.444000000
H    -5.507000000     0.267000000    -4.976000000
H    -4.113000000    -0.316000000    -4.885000000
O     1.057000000    -1.028000000     4.122000000
H     1.282000000    -0.267000000     3.587000000
H     0.824000000    -1.706000000     3.488000000
O     4.724000000    -2.536000000    -4.403000000
H     5.534000000    -3.043000000    -4.350000000
H     4.649000000    -2.114000000    -3.547000000
O    -7.162000000     0.184000000    -3.902000000
H    -7.585000000    -0.440000000    -4.491000000
H    -7.655000000     0.115000000    -3.084000000
O    -0.490000000     2.699000000     6.210000000
H    -0.007000000     3.086000000     5.480000000
H    -0.257000000     3.240000000     6.965000000
O    -3.283000000     3.349000000     1.202000000
H    -3.594000000     2.553000000     0.770000000
H    -4.014000000     3.623000000     1.755000000
O    -1.037000000     5.132000000     3.530000000
H    -0.607000000     4.967000000     2.690000000
H    -1.654000000     4.407000000     3.629000000
O     4.109000000    -2.706000000     3.221000000
H     4.399000000    -3.362000000     3.855000000
H     3.162000000    -2.651000000     3.351000000
O     0.219000000    -4.253000000    -0.043000000
H     0.172000000    -5.129000000    -0.424000000
H    -0.687000000    -4.039000000     0.180000000
O     1.969000000     0.360000000     6.501000000
H     1.246000000     0.635000000     5.937000000
H     2.470000000    -0.255000000     5.966000000
O     4.308000000    -1.460000000    -2.065000000
H     3.918000000    -1.871000000    -1.293000000
H     4.685000000    -0.644000000    -1.737000000
O     1.210000000    -3.330000000     2.658000000
H     1.184000000    -3.430000000     1.707000000
H     0.874000000    -4.160000000     2.996000000
O     2.034000000     0.323000000    -3.572000000
H     1.238000000    -0.197000000    -3.686000000
H     2.588000000     0.078000000    -4.314000000
O    -1.713000000     2.747000000    -3.693000000
H    -2.120000000     3.600000000    -3.846000000
H    -1.373000000     2.801000000    -2.800000000
O    -0.294000000    -3.623000000    -4.930000000
H     0.457000000    -3.343000000    -4.406000000
H    -1.057000000    -3.380000000    -4.404000000
O    -4.859000000     1.729000000    -2.969000000
H    -4.315000000     1.123000000    -2.468000000
H    -5.730000000     1.333000000    -2.961000000
O    -3.777000000     3.936000000    -1.752000000
H    -4.099000000     3.226000000    -2.308000000
H    -3.218000000     3.502000000    -1.108000000
O     2.607000000    -3.754000000    -1.244000000
H     2.882000000    -4.664000000    -1.354000000
H     1.764000000    -3.811000000    -0.794000000
O     3.423000000     4.586000000    -0.408000000
H     4.032000000     4.229000000    -1.054000000
H     3.981000000     5.047000000     0.218000000
O    -5.518000000     3.405000000     2.697000000
H    -5.595000000     2.728000000     3.369000000
H    -6.364000000     3.853000000     2.709000000
O     1.282000000     3.839000000     4.226000000
H     0.618000000     4.482000000     3.977000000
H     1.579000000     3.467000000     3.395000000
O     4.674000000     3.383000000    -2.534000000
H     5.161000000     3.836000000    -3.223000000
H     5.259000000     2.681000000    -2.250000000
O    -2.386000000     6.188000000     0.859000000
H    -2.495000000     5.267000000     1.093000000
H    -1.458000000     6.367000000     1.015000000
O    -4.917000000    -4.135000000    -2.854000000
H    -5.850000000    -4.250000000    -3.035000000
H    -4.875000000    -3.357000000    -2.298000000
O    -6.411000000     4.914000000    -1.731000000
H    -5.590000000     4.427000000    -1.801000000
H    -6.205000000     5.648000000    -1.151000000
O     6.764000000     0.378000000    -1.366000000
H     6.576000000     0.280000000    -2.300000000
H     7.651000000     0.737000000    -1.337000000
O    -6.645000000    -1.665000000     3.943000000
H    -6.317000000    -1.486000000     3.062000000
H    -6.423000000    -2.583000000     4.099000000
O    -8.465000000     0.194000000    -1.474000000
H    -9.143000000     0.847000000    -1.646000000
H    -7.743000000     0.694000000    -1.093000000
O    -1.176000000     0.265000000    -6.346000000
H    -0.236000000     0.340000000    -6.181000000
H    -1.585000000     0.698000000    -5.597000000
O    -2.679000000     1.142000000     5.838000000
H    -1.815000000     1.543000000     5.749000000
H    -3.107000000     1.305000000     4.998000000
O     4.849000000    -4.161000000     0.925000000
H     4.002000000    -4.349000000     0.521000000
H     4.643000000    -3.988000000     1.844000000
O    -3.716000000     0.607000000     3.203000000
H    -4.101000000     1.004000000     2.422000000
H    -3.738000000    -0.334000000     3.030000000
