161
-2999.21137
C     0.043000000    -1.346000000     0.531000000
H     0.135000000    -2.299000000     1.046000000
C     1.100000000    -0.505000000     0.385000000
H     2.122000000    -0.763000000     0.653000000
C     0.969000000     0.761000000    -0.121000000
C     2.176000000     1.585000000    -0.479000000
H     3.011000000     1.327000000     0.176000000
H     2.482000000     1.420000000    -1.514000000
H     1.874000000     2.615000000    -0.278000000
C    -0.279000000     1.160000000    -0.486000000
H    -0.364000000     2.152000000    -0.922000000
C    -1.397000000     0.364000000    -0.297000000
H    -2.386000000     0.759000000    -0.510000000
C    -1.266000000    -0.894000000     0.227000000
C    -2.427000000    -1.804000000     0.504000000
O    -3.567000000    -1.517000000     0.568000000
O    -2.230000000    -3.019000000     0.522000000
O    -5.643000000    -4.025000000     4.742000000
H    -5.788000000    -3.151000000     4.381000000
H    -5.956000000    -3.967000000     5.645000000
O    -0.307000000    -1.175000000    -2.814000000
H    -0.566000000    -0.368000000    -2.368000000
H    -1.060000000    -1.399000000    -3.360000000
O     3.118000000    -3.704000000    -0.572000000
H     3.562000000    -2.987000000    -1.025000000
H     2.930000000    -3.357000000     0.300000000
O     6.731000000    -1.565000000    -0.193000000
H     7.274000000    -2.278000000    -0.529000000
H     6.138000000    -1.988000000     0.428000000
O     0.504000000    -3.847000000     5.074000000
H     0.003000000    -3.689000000     5.873000000
H    -0.096000000    -3.613000000     4.365000000
O    -0.972000000    -6.324000000     4.482000000
H    -0.845000000    -5.725000000     3.746000000
H    -1.627000000    -5.893000000     5.031000000
O     5.114000000     4.846000000    -3.163000000
H     4.494000000     4.788000000    -2.435000000
H     5.921000000     5.171000000    -2.764000000
O    -4.061000000    -6.412000000     0.725000000
H    -3.590000000    -5.582000000     0.652000000
H    -4.283000000    -6.480000000     1.654000000
O    -4.871000000     2.014000000    -2.263000000
H    -5.282000000     1.390000000    -2.861000000
H    -4.712000000     1.512000000    -1.464000000
O     4.020000000    -1.682000000    -1.731000000
H     4.875000000    -1.267000000    -1.844000000
H     3.429000000    -1.164000000    -2.277000000
O     0.186000000     4.183000000    -3.264000000
H     0.206000000     3.242000000    -3.435000000
H    -0.522000000     4.512000000    -3.818000000
O    -1.164000000     0.825000000     3.010000000
H    -1.837000000     1.500000000     2.921000000
H    -0.831000000     0.699000000     2.122000000
O    -4.245000000    -5.746000000    -3.493000000
H    -5.123000000    -5.481000000    -3.766000000
H    -3.904000000    -4.989000000    -3.016000000
O    -4.905000000    -1.628000000     2.741000000
H    -5.666000000    -1.118000000     2.465000000
H    -4.395000000    -1.750000000     1.940000000
O    -0.226000000     0.321000000     5.673000000
H    -0.367000000     1.024000000     6.307000000
H    -0.605000000     0.653000000     4.859000000
O     5.014000000     3.700000000     1.937000000
H     4.076000000     3.726000000     1.747000000
H     5.359000000     4.504000000     1.549000000
O    -0.213000000     5.036000000     1.004000000
H     0.018000000     5.582000000     0.252000000
H    -0.087000000     5.608000000     1.762000000
O     5.510000000     1.030000000     1.649000000
H     5.278000000     0.902000000     0.730000000
H     5.377000000     1.966000000     1.801000000
O    -0.883000000     3.748000000     3.963000000
H    -1.168000000     3.469000000     3.093000000
H    -1.650000000     3.616000000     4.520000000
O     1.622000000    -1.216000000     4.544000000
H     1.090000000    -0.460000000     4.793000000
H     0.996000000    -1.939000000     4.485000000
O    -3.452000000     4.503000000    -2.106000000
H    -3.823000000     3.621000000    -2.090000000
H    -3.737000000     4.898000000    -1.282000000
O    -7.407000000    -2.197000000    -0.819000000
H    -7.250000000    -3.067000000    -0.451000000
H    -8.241000000    -1.923000000    -0.439000000
O     3.037000000    -2.698000000     1.788000000
H     3.690000000    -3.194000000     2.281000000
H     2.456000000    -2.335000000     2.456000000
O    -0.587000000    -3.739000000    -1.612000000
H    -0.362000000    -2.882000000    -1.975000000
H    -1.268000000    -3.553000000    -0.965000000
O     1.658000000     3.819000000    -5.658000000
H     2.107000000     4.243000000    -4.927000000
H     1.200000000     4.531000000    -6.104000000
O     1.809000000     3.006000000     4.926000000
H     0.913000000     2.777000000     4.677000000
H     2.340000000     2.278000000     4.605000000
O    -1.744000000     6.774000000    -1.721000000
H    -2.201000000     5.933000000    -1.704000000
H    -0.833000000     6.548000000    -1.906000000
O    -4.057000000    -3.873000000    -1.238000000
H    -4.400000000    -3.035000000    -1.549000000
H    -3.396000000    -3.635000000    -0.588000000
O    -7.567000000    -0.244000000     2.895000000
H    -7.457000000     0.646000000     3.228000000
H    -8.076000000    -0.138000000     2.091000000
O    -3.246000000    -1.000000000    -3.579000000
H    -4.144000000    -0.669000000    -3.615000000
H    -2.732000000    -0.348000000    -4.055000000
O    -0.846000000    -5.662000000    -3.558000000
H    -0.699000000    -5.043000000    -2.842000000
H    -1.382000000    -6.353000000    -3.170000000
O    -2.915000000     2.716000000     2.334000000
H    -2.562000000     3.273000000     1.639000000
H    -3.865000000     2.794000000     2.243000000
O    -6.537000000    -4.894000000    -0.413000000
H    -5.752000000    -4.672000000    -0.914000000
H    -6.264000000    -4.827000000     0.502000000
O    -1.108000000    -7.897000000     0.135000000
H    -0.604000000    -7.094000000     0.266000000
H    -1.662000000    -7.711000000    -0.623000000
O    -1.935000000     1.122000000    -4.455000000
H    -2.398000000     1.856000000    -4.859000000
H    -1.108000000     1.068000000    -4.932000000
O     0.731000000     1.368000000    -4.880000000
H     1.108000000     0.743000000    -5.498000000
H     1.197000000     2.186000000    -5.052000000
O     3.493000000     1.043000000     3.550000000
H     3.909000000     1.217000000     2.706000000
H     3.553000000     0.094000000     3.656000000
O    -2.716000000    -1.342000000     4.123000000
H    -3.621000000    -1.457000000     3.834000000
H    -2.411000000    -0.566000000     3.653000000
O    -5.708000000     2.452000000     1.413000000
H    -5.404000000     1.725000000     0.869000000
H    -6.099000000     2.031000000     2.179000000
O     0.754000000    -5.562000000    -0.010000000
H     1.651000000    -5.365000000     0.261000000
H     0.468000000    -4.778000000    -0.479000000
O    -1.511000000    -3.757000000     3.207000000
H    -1.809000000    -2.968000000     3.660000000
H    -1.780000000    -3.627000000     2.298000000
O     2.613000000     4.835000000    -1.918000000
H     1.766000000     4.488000000    -2.197000000
H     2.404000000     5.669000000    -1.497000000
O     2.308000000    -0.993000000    -3.992000000
H     1.450000000    -0.887000000    -3.582000000
H     2.197000000    -0.639000000    -4.874000000
O    -5.354000000     0.230000000    -0.169000000
H    -5.922000000    -0.241000000    -0.778000000
H    -4.705000000    -0.418000000     0.105000000
O     6.268000000     2.226000000    -2.425000000
H     5.648000000     2.955000000    -2.408000000
H     6.650000000     2.257000000    -3.302000000
O     7.584000000     1.746000000     3.050000000
H     8.119000000     0.960000000     3.161000000
H     6.778000000     1.431000000     2.640000000
O     4.658000000    -2.182000000    -4.499000000
H     3.948000000    -1.797000000    -3.985000000
H     4.857000000    -1.522000000    -5.163000000
O     2.245000000     3.753000000     2.195000000
H     1.495000000     3.905000000     1.620000000
H     2.099000000     4.339000000     2.938000000
