161
-3051.85778
C    -0.290000000     1.246000000     0.857000000
H    -0.446000000     2.123000000     1.480000000
C    -0.108000000    -0.060000000     1.332000000
H    -0.255000000    -0.220000000     2.397000000
C     0.166000000    -1.128000000     0.465000000
C     0.422000000    -2.419000000     1.018000000
H     1.332000000    -2.799000000     0.549000000
H     0.328000000    -2.640000000     2.084000000
H    -0.236000000    -3.170000000     0.576000000
C     0.271000000    -0.875000000    -0.907000000
H     0.451000000    -1.656000000    -1.641000000
C     0.133000000     0.355000000    -1.414000000
H     0.123000000     0.460000000    -2.496000000
C    -0.246000000     1.430000000    -0.571000000
C    -0.483000000     2.776000000    -1.125000000
O    -1.027000000     2.875000000    -2.210000000
O    -0.143000000     3.706000000    -0.397000000
O    -0.335000000     3.649000000    -4.866000000
H     0.245000000     4.383000000    -4.665000000
H    -0.509000000     3.241000000    -4.018000000
O     2.181000000     4.812000000    -0.800000000
H     2.666000000     4.021000000    -0.566000000
H     1.280000000     4.626000000    -0.537000000
O     4.353000000     5.912000000    -2.305000000
H     5.118000000     5.572000000    -1.841000000
H     3.605000000     5.573000000    -1.813000000
O    -1.446000000    -0.033000000    -6.136000000
H    -1.150000000     0.871000000    -6.241000000
H    -2.186000000    -0.115000000    -6.737000000
O     4.563000000     1.519000000    -2.906000000
H     4.291000000     2.062000000    -2.166000000
H     3.935000000     0.797000000    -2.916000000
O     1.011000000     8.118000000    -1.918000000
H     1.818000000     8.269000000    -2.409000000
H     1.283000000     8.128000000    -1.000000000
O    -2.633000000    -1.997000000     2.539000000
H    -2.356000000    -1.406000000     3.239000000
H    -3.360000000    -1.542000000     2.115000000
O    -3.284000000     4.497000000    -1.742000000
H    -2.856000000     5.328000000    -1.533000000
H    -2.578000000     3.938000000    -2.064000000
O    -4.197000000     2.606000000    -4.896000000
H    -3.745000000     3.133000000    -5.556000000
H    -5.067000000     2.999000000    -4.829000000
O    -2.393000000    -4.361000000    -3.395000000
H    -3.192000000    -4.430000000    -3.917000000
H    -1.689000000    -4.304000000    -4.041000000
O     3.402000000     1.528000000     3.681000000
H     2.730000000     2.146000000     3.394000000
H     3.084000000     0.674000000     3.387000000
O    -4.029000000     0.929000000     2.642000000
H    -3.969000000     1.200000000     1.726000000
H    -3.275000000     1.341000000     3.064000000
O     2.504000000    -3.411000000    -2.762000000
H     2.906000000    -3.657000000    -3.594000000
H     2.156000000    -4.231000000    -2.412000000
O    -1.681000000     6.967000000    -1.395000000
H    -0.953000000     7.282000000    -1.930000000
H    -1.777000000     7.627000000    -0.708000000
O     1.306000000     0.384000000     5.529000000
H     2.022000000     0.853000000     5.958000000
H     0.931000000     1.021000000     4.922000000
O    -0.111000000     7.377000000     2.386000000
H    -0.821000000     7.076000000     1.818000000
H     0.500000000     7.813000000     1.793000000
O    -1.752000000     1.399000000     4.476000000
H    -1.014000000     2.003000000     4.391000000
H    -1.981000000     1.430000000     5.405000000
O    -3.930000000    -2.159000000    -1.517000000
H    -3.605000000    -1.945000000    -2.391000000
H    -3.422000000    -2.927000000    -1.254000000
O     1.899000000    -7.446000000     4.682000000
H     1.744000000    -6.872000000     3.932000000
H     2.753000000    -7.842000000     4.508000000
O     1.192000000     5.667000000    -3.331000000
H     1.414000000     5.324000000    -2.465000000
H     1.029000000     6.599000000    -3.185000000
O     3.049000000    -0.076000000    -0.283000000
H     3.087000000    -0.331000000    -1.204000000
H     2.135000000     0.169000000    -0.139000000
O     4.392000000    -4.229000000     1.196000000
H     5.295000000    -4.078000000     1.475000000
H     3.965000000    -3.379000000     1.297000000
O    -3.474000000     3.539000000     1.806000000
H    -3.057000000     4.291000000     1.385000000
H    -3.642000000     3.829000000     2.702000000
O    -3.025000000     1.399000000    -2.546000000
H    -2.342000000     1.922000000    -2.127000000
H    -3.293000000     1.919000000    -3.304000000
O    -1.639000000     5.479000000     0.871000000
H    -1.554000000     6.060000000     0.116000000
H    -1.468000000     4.604000000     0.521000000
O    -1.829000000    -4.678000000     2.264000000
H    -1.491000000    -4.689000000     3.159000000
H    -1.999000000    -3.753000000     2.083000000
O    -0.351000000    -4.657000000    -4.998000000
H     0.113000000    -5.325000000    -5.504000000
H     0.096000000    -3.839000000    -5.215000000
O     5.548000000    -4.903000000    -1.589000000
H     5.133000000    -4.406000000    -0.884000000
H     6.487000000    -4.781000000    -1.447000000
O     3.576000000     3.917000000     1.768000000
H     4.081000000     4.586000000     2.230000000
H     2.690000000     3.999000000     2.122000000
O    -4.058000000     0.312000000    -0.254000000
H    -3.878000000     0.862000000    -1.016000000
H    -4.155000000    -0.570000000    -0.612000000
O     3.295000000    -0.864000000    -3.077000000
H     2.962000000    -1.676000000    -2.695000000
H     3.254000000    -1.010000000    -4.022000000
O     3.995000000     2.545000000    -0.491000000
H     4.055000000     3.082000000     0.299000000
H     3.807000000     1.664000000    -0.167000000
O     1.125000000    -5.395000000     2.990000000
H     0.216000000    -5.376000000     2.693000000
H     1.395000000    -4.477000000     2.996000000
O     0.705000000    -2.187000000     6.185000000
H     0.476000000    -1.260000000     6.126000000
H     1.435000000    -2.293000000     5.574000000
O     4.138000000    -1.245000000     2.211000000
H     3.994000000    -0.869000000     1.342000000
H     5.008000000    -0.935000000     2.464000000
O    -2.857000000    -4.339000000    -0.682000000
H    -1.997000000    -4.258000000    -0.269000000
H    -2.665000000    -4.485000000    -1.608000000
O     0.658000000     2.866000000     4.601000000
H     1.216000000     3.052000000     5.356000000
H     0.583000000     3.704000000     4.145000000
O     3.657000000    -6.676000000     1.880000000
H     2.739000000    -6.449000000     2.028000000
H     4.083000000    -5.842000000     1.685000000
O    -2.877000000    -1.006000000    -3.787000000
H    -2.633000000    -0.734000000    -4.672000000
H    -2.810000000    -0.208000000    -3.263000000
O     1.103000000     4.934000000     2.830000000
H     1.113000000     5.872000000     3.021000000
H     0.593000000     4.859000000     2.023000000
O    -5.450000000     3.600000000    -0.342000000
H    -5.049000000     3.267000000     0.461000000
H    -4.748000000     4.080000000    -0.780000000
O     1.346000000    -6.350000000    -1.968000000
H     0.675000000    -6.589000000    -1.329000000
H     0.976000000    -6.611000000    -2.812000000
O     3.040000000    -0.936000000    -5.977000000
H     3.424000000    -1.602000000    -6.548000000
H     3.334000000    -0.104000000    -6.347000000
O     0.551000000    -1.954000000    -5.868000000
H     1.439000000    -1.609000000    -5.772000000
H    -0.018000000    -1.200000000    -5.711000000
O    -2.661000000     4.556000000    -6.193000000
H    -2.591000000     5.361000000    -5.681000000
H    -1.811000000     4.129000000    -6.087000000
O     3.152000000    -4.315000000     6.112000000
H     2.235000000    -4.584000000     6.162000000
H     3.294000000    -3.797000000     6.904000000
O    -5.335000000    -5.391000000    -0.857000000
H    -4.587000000    -4.831000000    -0.648000000
H    -6.035000000    -5.079000000    -0.283000000
O     2.571000000    -3.165000000     3.789000000
H     3.148000000    -3.550000000     4.448000000
H     3.156000000    -2.659000000     3.224000000
