161
-3034.33207
C    -1.028000000     1.126000000    -0.264000000
H    -1.816000000     1.870000000    -0.336000000
C    -1.304000000    -0.207000000     0.118000000
H    -2.324000000    -0.402000000     0.439000000
C    -0.281000000    -1.208000000     0.274000000
C    -0.510000000    -2.560000000     0.899000000
H    -1.492000000    -2.580000000     1.375000000
H    -0.581000000    -3.326000000     0.124000000
H     0.246000000    -2.913000000     1.604000000
C     1.002000000    -0.784000000     0.003000000
H     1.812000000    -1.503000000     0.092000000
C     1.249000000     0.539000000    -0.413000000
H     2.297000000     0.799000000    -0.537000000
C     0.264000000     1.474000000    -0.457000000
C     0.698000000     2.883000000    -0.796000000
O     1.817000000     3.185000000    -0.690000000
O    -0.054000000     3.601000000    -1.442000000
O    -2.779000000    -0.163000000    -3.487000000
H    -2.833000000    -0.981000000    -2.992000000
H    -3.014000000     0.516000000    -2.854000000
O     0.832000000     6.315000000    -2.972000000
H     0.432000000     5.449000000    -2.894000000
H     0.303000000     6.764000000    -3.631000000
O     4.316000000     2.317000000    -2.043000000
H     3.980000000     1.737000000    -2.726000000
H     3.532000000     2.663000000    -1.616000000
O     6.450000000     3.056000000    -0.220000000
H     5.690000000     2.719000000    -0.694000000
H     6.285000000     3.996000000    -0.142000000
O    -5.710000000    -0.012000000     1.216000000
H    -5.001000000    -0.504000000     1.631000000
H    -5.376000000     0.200000000     0.345000000
O     3.259000000    -5.782000000     0.822000000
H     3.619000000    -6.609000000     0.502000000
H     3.946000000    -5.139000000     0.649000000
O    -2.312000000    -4.935000000    -2.555000000
H    -2.435000000    -5.459000000    -3.347000000
H    -2.633000000    -5.493000000    -1.847000000
O     3.457000000     1.042000000    -4.467000000
H     2.503000000     1.041000000    -4.555000000
H     3.762000000     1.599000000    -5.182000000
O    -2.797000000     5.591000000     2.950000000
H    -3.011000000     5.667000000     2.021000000
H    -1.844000000     5.510000000     2.971000000
O     0.630000000    -4.348000000     4.182000000
H    -0.062000000    -4.573000000     3.561000000
H     0.807000000    -3.422000000     4.017000000
O    -0.757000000     5.827000000    -0.521000000
H    -0.453000000     5.057000000    -1.001000000
H     0.043000000     6.231000000    -0.184000000
O     0.451000000    -1.817000000     5.843000000
H     0.502000000    -1.237000000     5.083000000
H     1.298000000    -1.718000000     6.277000000
O     0.670000000     0.638000000    -5.206000000
H     0.703000000     1.555000000    -4.936000000
H    -0.198000000     0.535000000    -5.598000000
O     1.052000000     2.398000000     2.428000000
H     1.278000000     1.671000000     1.849000000
H     1.863000000     2.899000000     2.512000000
O     0.516000000    -7.402000000     2.511000000
H     1.312000000    -7.079000000     2.933000000
H     0.514000000    -6.984000000     1.651000000
O    -0.810000000     4.723000000    -5.283000000
H    -1.460000000     4.407000000    -4.656000000
H     0.033000000     4.501000000    -4.887000000
O    -2.523000000     6.410000000    -2.810000000
H    -3.154000000     5.695000000    -2.727000000
H    -2.058000000     6.417000000    -1.974000000
O     0.490000000    -5.968000000     0.267000000
H     1.397000000    -5.767000000     0.499000000
H     0.461000000    -5.880000000    -0.685000000
O     4.940000000    -3.775000000    -0.896000000
H     5.114000000    -4.589000000    -1.369000000
H     4.299000000    -3.315000000    -1.437000000
O     1.226000000    -6.304000000    -2.579000000
H     2.170000000    -6.151000000    -2.542000000
H     0.849000000    -5.437000000    -2.728000000
O    -4.663000000    -0.118000000    -1.312000000
H    -5.381000000     0.172000000    -1.876000000
H    -4.422000000    -0.978000000    -1.655000000
O    -3.933000000     3.143000000     1.961000000
H    -3.131000000     3.038000000     2.472000000
H    -3.745000000     3.868000000     1.366000000
O     3.058000000    -1.862000000    -2.432000000
H     3.281000000    -2.018000000    -3.350000000
H     2.135000000    -1.608000000    -2.451000000
O     6.161000000    -2.796000000     1.323000000
H     5.826000000    -1.917000000     1.501000000
H     5.892000000    -2.977000000     0.422000000
O     2.350000000    -1.933000000     3.270000000
H     2.815000000    -1.212000000     2.847000000
H     3.037000000    -2.441000000     3.702000000
O     1.276000000     5.888000000     2.237000000
H     1.031000000     5.419000000     3.034000000
H     2.038000000     5.413000000     1.904000000
O     5.440000000     5.713000000    -0.099000000
H     6.003000000     6.046000000    -0.798000000
H     5.838000000     6.042000000     0.707000000
O     4.211000000    -0.211000000     2.258000000
H     4.959000000     0.355000000     2.449000000
H     4.311000000    -0.438000000     1.333000000
O    -3.988000000    -1.640000000     2.608000000
H    -4.343000000    -1.735000000     3.492000000
H    -4.132000000    -2.493000000     2.199000000
O     0.316000000    -1.249000000    -2.821000000
H     0.523000000    -0.463000000    -3.326000000
H    -0.358000000    -0.966000000    -2.203000000
O    -3.652000000    -6.453000000    -0.632000000
H    -4.505000000    -6.610000000    -1.038000000
H    -3.664000000    -6.985000000     0.163000000
O     0.697000000     0.012000000     4.058000000
H     1.163000000     0.828000000     3.879000000
H     1.126000000    -0.637000000     3.500000000
O    -1.878000000    -5.404000000     2.716000000
H    -2.752000000    -5.049000000     2.552000000
H    -1.589000000    -5.732000000     1.864000000
O    -1.323000000     2.847000000     3.508000000
H    -0.507000000     2.583000000     3.084000000
H    -1.726000000     2.024000000     3.784000000
O     0.179000000    -3.803000000    -3.397000000
H    -0.674000000    -4.155000000    -3.143000000
H     0.130000000    -2.873000000    -3.174000000
O     3.134000000     4.249000000     1.193000000
H     3.925000000     4.513000000     0.723000000
H     2.518000000     4.001000000     0.503000000
O     3.302000000     7.156000000    -1.797000000
H     2.438000000     6.792000000    -1.988000000
H     3.771000000     6.444000000    -1.361000000
O     4.585000000    -0.720000000    -0.322000000
H     5.299000000    -0.312000000    -0.813000000
H     3.954000000    -0.982000000    -0.992000000
O    -3.795000000    -2.641000000    -2.091000000
H    -4.615000000    -2.998000000    -1.752000000
H    -3.275000000    -3.411000000    -2.320000000
O     1.063000000     2.984000000    -3.979000000
H     1.650000000     3.689000000    -4.250000000
H     0.794000000     3.224000000    -3.092000000
O    -3.403000000     4.957000000    -0.020000000
H    -3.844000000     4.430000000    -0.687000000
H    -2.653000000     5.340000000    -0.476000000
O    -4.405000000    -4.232000000     1.890000000
H    -5.226000000    -4.633000000     2.175000000
H    -4.622000000    -3.805000000     1.061000000
O     2.715000000    -5.873000000     3.605000000
H     2.887000000    -5.616000000     2.699000000
H     2.018000000    -5.285000000     3.893000000
O    -2.341000000     3.460000000    -3.048000000
H    -3.130000000     3.159000000    -2.598000000
H    -1.668000000     3.476000000    -2.368000000
O    -2.368000000     0.267000000     3.650000000
H    -2.763000000    -0.474000000     3.190000000
H    -1.469000000    -0.012000000     3.825000000
O    -6.364000000     2.843000000     0.232000000
H    -5.684000000     2.515000000     0.821000000
H    -6.659000000     2.069000000    -0.248000000
O    -4.703000000     3.423000000    -2.129000000
H    -5.370000000     3.414000000    -1.444000000
H    -5.199000000     3.481000000    -2.946000000
O     3.441000000     0.941000000     4.705000000
H     3.549000000     0.532000000     3.846000000
H     4.315000000     1.260000000     4.931000000
