161
-3069.77023
C    -0.550000000     1.151000000     0.720000000
H    -0.819000000     2.016000000     1.321000000
C    -0.056000000    -0.033000000     1.335000000
H    -0.134000000    -0.153000000     2.412000000
C     0.409000000    -1.069000000     0.564000000
C     0.889000000    -2.316000000     1.118000000
H     0.100000000    -3.052000000     0.947000000
H     1.763000000    -2.631000000     0.545000000
H     1.140000000    -2.314000000     2.181000000
C     0.334000000    -0.873000000    -0.796000000
H     0.610000000    -1.735000000    -1.398000000
C    -0.032000000     0.300000000    -1.408000000
H     0.023000000     0.271000000    -2.493000000
C    -0.565000000     1.340000000    -0.626000000
C    -0.908000000     2.675000000    -1.296000000
O    -0.530000000     3.002000000    -2.401000000
O    -1.674000000     3.429000000    -0.724000000
O     0.610000000     5.417000000    -2.343000000
H     0.132000000     4.593000000    -2.247000000
H    -0.057000000     6.095000000    -2.235000000
O     3.426000000    -1.174000000    -2.978000000
H     2.728000000    -1.825000000    -3.050000000
H     3.798000000    -1.123000000    -3.858000000
O    -3.248000000    -1.262000000     1.374000000
H    -3.817000000    -0.681000000     1.880000000
H    -2.385000000    -0.851000000     1.418000000
O     5.469000000    -2.514000000    -1.011000000
H     4.795000000    -1.839000000    -0.928000000
H     5.966000000    -2.458000000    -0.195000000
O     2.402000000     7.416000000    -2.830000000
H     1.734000000     6.760000000    -2.630000000
H     2.830000000     7.088000000    -3.622000000
O     1.934000000    -4.323000000     3.674000000
H     2.717000000    -3.777000000     3.606000000
H     1.960000000    -4.877000000     2.894000000
O    -3.581000000     4.850000000     4.564000000
H    -2.933000000     4.171000000     4.376000000
H    -4.234000000     4.413000000     5.110000000
O    -1.940000000     0.614000000     5.228000000
H    -2.717000000     0.754000000     5.769000000
H    -2.077000000    -0.245000000     4.829000000
O     2.449000000    -0.620000000     4.994000000
H     1.661000000    -1.142000000     4.846000000
H     3.092000000    -0.979000000     4.382000000
O    -2.763000000    -1.877000000     4.152000000
H    -2.505000000    -2.529000000     3.500000000
H    -3.585000000    -2.211000000     4.511000000
O    -1.906000000    -5.684000000     2.109000000
H    -1.316000000    -6.200000000     2.658000000
H    -2.652000000    -5.489000000     2.676000000
O    -1.334000000    -4.405000000    -2.341000000
H    -2.011000000    -4.850000000    -2.851000000
H    -1.790000000    -4.087000000    -1.562000000
O     2.402000000     4.402000000     1.027000000
H     3.168000000     4.121000000     0.526000000
H     2.164000000     5.248000000     0.646000000
O    -1.802000000     1.538000000    -4.164000000
H    -1.173000000     1.835000000    -3.507000000
H    -2.125000000     0.702000000    -3.826000000
O    -0.487000000     5.889000000     4.842000000
H    -0.913000000     5.077000000     4.566000000
H    -0.056000000     6.214000000     4.052000000
O     1.505000000     5.337000000    -5.122000000
H     1.840000000     4.697000000    -4.494000000
H     2.288000000     5.752000000    -5.483000000
O     0.419000000    -2.368000000     4.756000000
H    -0.496000000    -2.229000000     4.512000000
H     0.662000000    -3.184000000     4.319000000
O    -1.752000000    -1.605000000    -3.469000000
H    -2.409000000    -1.255000000    -2.868000000
H    -1.567000000    -2.483000000    -3.136000000
O     1.989000000     2.686000000    -3.495000000
H     2.028000000     1.970000000    -4.129000000
H     1.153000000     2.561000000    -3.044000000
O    -1.058000000     4.238000000    -4.955000000
H    -1.201000000     3.891000000    -4.074000000
H    -0.227000000     4.709000000    -4.894000000
O     1.024000000    -5.630000000    -1.595000000
H     0.204000000    -5.162000000    -1.752000000
H     1.707000000    -4.985000000    -1.781000000
O    -0.022000000     0.459000000     7.218000000
H     0.877000000     0.500000000     6.894000000
H    -0.563000000     0.511000000     6.430000000
O    -4.082000000     2.073000000    -0.743000000
H    -3.334000000     2.633000000    -0.951000000
H    -3.990000000     1.887000000     0.191000000
O     3.304000000    -2.778000000    -5.496000000
H     3.282000000    -3.735000000    -5.535000000
H     2.403000000    -2.526000000    -5.298000000
O    -2.647000000     7.042000000     0.821000000
H    -2.901000000     6.847000000    -0.081000000
H    -2.443000000     7.977000000     0.815000000
O     3.729000000    -4.656000000    -2.278000000
H     4.423000000    -3.997000000    -2.285000000
H     4.012000000    -5.309000000    -2.918000000
O    -4.597000000     4.565000000     1.020000000
H    -4.768000000     4.920000000     0.148000000
H    -3.755000000     4.944000000     1.273000000
O     4.256000000    -2.120000000     3.424000000
H     4.924000000    -1.621000000     2.954000000
H     4.731000000    -2.861000000     3.801000000
O    -3.482000000    -0.763000000    -1.385000000
H    -3.618000000     0.150000000    -1.129000000
H    -3.445000000    -1.240000000    -0.556000000
O     0.972000000     6.738000000     0.108000000
H     0.037000000     6.937000000     0.084000000
H     1.172000000     6.418000000    -0.772000000
O     5.277000000    -0.089000000     1.527000000
H     5.785000000     0.718000000     1.610000000
H     4.698000000     0.068000000     0.782000000
O     1.915000000     0.819000000    -5.707000000
H     1.889000000    -0.068000000    -6.066000000
H     1.608000000     1.376000000    -6.423000000
O    -4.123000000     4.833000000    -4.197000000
H    -3.573000000     4.343000000    -4.808000000
H    -4.746000000     4.186000000    -3.864000000
O    -2.653000000    -6.547000000    -0.436000000
H    -3.036000000    -5.816000000    -0.921000000
H    -2.365000000    -6.161000000     0.391000000
O    -1.475000000     3.274000000     3.766000000
H    -1.219000000     3.896000000     3.085000000
H    -0.659000000     2.839000000     4.012000000
O    -3.780000000     2.342000000     2.444000000
H    -4.104000000     3.206000000     2.190000000
H    -3.052000000     2.524000000     3.038000000
O     0.647000000    -2.216000000    -4.920000000
H     0.245000000    -2.707000000    -5.636000000
H    -0.087000000    -1.785000000    -4.482000000
O    -1.268000000     4.755000000     1.549000000
H    -1.270000000     4.358000000     0.678000000
H    -1.900000000     5.472000000     1.486000000
O     3.931000000     2.441000000    -0.958000000
H     3.241000000     2.912000000    -1.425000000
H     3.569000000     1.566000000    -0.814000000
O    -3.800000000     2.445000000    -5.815000000
H    -3.052000000     2.036000000    -5.379000000
H    -4.518000000     2.361000000    -5.188000000
O     3.430000000    -0.482000000    -0.334000000
H     2.543000000    -0.765000000    -0.110000000
H     3.481000000    -0.582000000    -1.284000000
O    -3.202000000    -3.574000000    -0.504000000
H    -2.868000000    -3.265000000     0.338000000
H    -4.124000000    -3.318000000    -0.505000000
O     3.664000000    -6.030000000    -0.012000000
H     3.376000000    -5.628000000    -0.831000000
H     4.367000000    -5.460000000     0.300000000
O     1.296000000    -7.346000000     0.546000000
H     2.199000000    -7.045000000     0.442000000
H     0.824000000    -6.943000000    -0.182000000
O    -1.457000000     7.103000000    -1.888000000
H    -2.389000000     7.029000000    -2.091000000
H    -1.282000000     8.044000000    -1.905000000
O     1.220000000     2.438000000     2.940000000
H     1.536000000     3.048000000     2.274000000
H     1.469000000     1.574000000     2.613000000
O    -3.549000000     5.586000000    -1.586000000
H    -3.715000000     5.434000000    -2.516000000
H    -2.808000000     5.016000000    -1.379000000
O    -5.190000000     1.880000000    -3.464000000
H    -4.784000000     1.854000000    -2.598000000
H    -6.081000000     1.561000000    -3.321000000
