161
-3058.01494
C    -0.630000000     1.024000000    -0.875000000
H    -1.120000000     1.706000000    -1.565000000
C    -1.274000000    -0.047000000    -0.307000000
H    -2.341000000    -0.114000000    -0.499000000
C    -0.595000000    -0.935000000     0.566000000
C    -1.388000000    -2.029000000     1.229000000
H    -0.757000000    -2.671000000     1.848000000
H    -2.113000000    -1.512000000     1.861000000
H    -1.850000000    -2.732000000     0.534000000
C     0.742000000    -0.777000000     0.730000000
H     1.263000000    -1.546000000     1.295000000
C     1.489000000     0.271000000     0.113000000
H     2.570000000     0.343000000     0.206000000
C     0.760000000     1.162000000    -0.677000000
C     1.550000000     2.299000000    -1.339000000
O     2.666000000     2.430000000    -0.989000000
O     1.031000000     3.120000000    -2.128000000
O     4.406000000    -4.107000000    -0.143000000
H     5.126000000    -4.443000000    -0.677000000
H     4.457000000    -3.156000000    -0.244000000
O     4.204000000     2.138000000     1.332000000
H     3.527000000     2.222000000     0.660000000
H     4.912000000     2.707000000     1.032000000
O     5.099000000     1.755000000    -1.554000000
H     5.196000000     0.809000000    -1.452000000
H     4.178000000     1.924000000    -1.354000000
O     0.050000000     2.212000000    -4.743000000
H     0.678000000     2.615000000    -5.342000000
H     0.240000000     2.609000000    -3.893000000
O    -0.719000000    -4.665000000     6.569000000
H    -1.426000000    -4.044000000     6.392000000
H    -0.036000000    -4.434000000     5.940000000
O     5.753000000     4.255000000     0.831000000
H     6.656000000     4.470000000     1.066000000
H     5.580000000     4.773000000     0.045000000
O    -3.308000000    -4.628000000     4.452000000
H    -3.357000000    -4.554000000     3.499000000
H    -3.152000000    -5.558000000     4.613000000
O     7.117000000     3.296000000    -2.222000000
H     6.308000000     2.800000000    -2.100000000
H     7.278000000     3.707000000    -1.372000000
O     0.292000000    -1.418000000    -5.515000000
H     1.085000000    -1.954000000    -5.472000000
H     0.156000000    -1.119000000    -4.616000000
O    -6.485000000    -1.496000000     3.868000000
H    -7.059000000    -1.076000000     4.509000000
H    -5.829000000    -0.831000000     3.660000000
O    -0.641000000     4.369000000    -0.221000000
H    -1.054000000     5.219000000    -0.375000000
H    -0.171000000     4.180000000    -1.033000000
O    -1.384000000     0.818000000     4.512000000
H    -1.324000000     1.119000000     5.419000000
H    -1.511000000     1.619000000     4.002000000
O     3.176000000     0.019000000     3.169000000
H     3.884000000     0.304000000     3.746000000
H     3.080000000     0.731000000     2.536000000
O    -4.373000000    -2.195000000    -0.983000000
H    -4.212000000    -3.126000000    -0.829000000
H    -5.047000000    -1.960000000    -0.346000000
O    -4.373000000     4.829000000    -4.254000000
H    -3.468000000     4.516000000    -4.230000000
H    -4.485000000     5.169000000    -5.142000000
O    -4.697000000     0.501000000    -3.699000000
H    -4.537000000     0.308000000    -4.623000000
H    -4.424000000    -0.292000000    -3.238000000
O    -0.256000000    -0.722000000    -3.045000000
H    -0.060000000    -0.017000000    -2.427000000
H     0.385000000    -1.403000000    -2.842000000
O     2.243000000     3.027000000    -6.209000000
H     2.323000000     3.724000000    -6.860000000
H     3.046000000     3.091000000    -5.691000000
O    -3.654000000     3.805000000     1.804000000
H    -4.058000000     4.127000000     2.610000000
H    -4.117000000     2.990000000     1.612000000
O    -4.395000000    -5.546000000     1.608000000
H    -4.032000000    -5.363000000     0.741000000
H    -4.479000000    -6.499000000     1.636000000
O     2.526000000     0.611000000    -4.062000000
H     1.668000000     1.034000000    -4.087000000
H     3.138000000     1.320000000    -3.866000000
O     2.043000000    -5.549000000    -0.331000000
H     2.353000000    -5.879000000    -1.175000000
H     2.689000000    -4.889000000    -0.081000000
O    -4.101000000     0.435000000     4.014000000
H    -4.528000000     1.074000000     4.584000000
H    -3.192000000     0.417000000     4.314000000
O     3.824000000    -2.479000000     4.430000000
H     3.498000000    -1.665000000     4.047000000
H     4.007000000    -3.042000000     3.678000000
O     1.210000000    -3.490000000     5.044000000
H     2.159000000    -3.440000000     4.928000000
H     0.869000000    -2.746000000     4.547000000
O    -0.464000000    -4.378000000    -1.574000000
H     0.151000000    -3.663000000    -1.738000000
H     0.046000000    -5.027000000    -1.090000000
O     3.905000000     5.582000000     2.566000000
H     3.050000000     5.792000000     2.190000000
H     4.282000000     4.942000000     1.963000000
O     3.593000000     3.025000000    -3.749000000
H     2.936000000     3.110000000    -3.059000000
H     4.221000000     3.725000000    -3.569000000
O    -6.431000000     1.915000000    -0.258000000
H    -6.043000000     2.414000000    -0.977000000
H    -5.700000000     1.746000000     0.337000000
O     0.741000000    -1.103000000     3.845000000
H     1.463000000    -0.518000000     3.613000000
H     0.002000000    -0.517000000     4.010000000
O    -1.370000000     0.727000000    -6.492000000
H    -0.945000000     1.312000000    -5.864000000
H    -0.988000000    -0.132000000    -6.315000000
O     1.859000000     5.901000000     1.026000000
H     1.059000000     5.374000000     1.005000000
H     2.129000000     5.962000000     0.110000000
O    -2.903000000    -1.539000000    -3.243000000
H    -1.959000000    -1.436000000    -3.123000000
H    -3.247000000    -1.648000000    -2.356000000
O    -5.033000000     3.057000000    -2.177000000
H    -5.067000000     3.644000000    -2.932000000
H    -4.894000000     2.189000000    -2.554000000
O     6.624000000     1.221000000     3.094000000
H     6.017000000     1.737000000     2.564000000
H     6.809000000     0.447000000     2.561000000
O     5.818000000     5.645000000    -1.369000000
H     6.139000000     5.477000000    -2.255000000
H     6.435000000     6.280000000    -1.006000000
O    -1.168000000     2.891000000     2.429000000
H    -0.885000000     2.414000000     1.649000000
H    -1.987000000     3.312000000     2.169000000
O    -3.420000000    -5.015000000    -0.964000000
H    -2.521000000    -4.702000000    -1.065000000
H    -3.805000000    -4.927000000    -1.836000000
O     1.858000000    -2.779000000    -2.288000000
H     2.580000000    -2.231000000    -1.981000000
H     2.284000000    -3.563000000    -2.634000000
O    -4.358000000     1.029000000     1.332000000
H    -3.782000000     0.429000000     0.858000000
H    -4.226000000     0.810000000     2.254000000
O    -1.139000000     6.502000000    -4.986000000
H    -0.291000000     6.408000000    -4.551000000
H    -1.061000000     5.974000000    -5.780000000
O     4.722000000    -4.308000000     2.557000000
H     4.755000000    -4.363000000     1.602000000
H     4.026000000    -4.916000000     2.808000000
O     1.209000000     7.686000000    -1.371000000
H     1.068000000     8.144000000    -2.200000000
H     1.908000000     7.060000000    -1.559000000
O     3.184000000     5.364000000    -1.641000000
H     3.096000000     4.494000000    -1.251000000
H     4.129000000     5.512000000    -1.686000000
O     1.424000000     5.535000000    -4.042000000
H     2.297000000     5.321000000    -4.372000000
H     1.200000000     4.803000000    -3.467000000
O     4.126000000    -1.062000000    -2.068000000
H     3.735000000    -0.577000000    -2.794000000
H     4.938000000    -1.418000000    -2.427000000
O    -2.942000000    -1.978000000     5.956000000
H    -2.988000000    -2.618000000     5.246000000
H    -2.301000000    -1.333000000     5.657000000
O    -5.877000000    -3.056000000     1.505000000
H    -6.453000000    -2.660000000     2.159000000
H    -5.487000000    -3.806000000     1.952000000
