161
-3039.73923
C    -0.710000000     1.063000000    -0.804000000
H    -1.335000000     1.812000000    -1.282000000
C    -1.273000000    -0.003000000    -0.163000000
H    -2.347000000    -0.173000000    -0.155000000
C    -0.498000000    -1.010000000     0.442000000
C    -1.120000000    -2.308000000     0.996000000
H    -0.905000000    -2.564000000     2.036000000
H    -2.185000000    -2.070000000     1.020000000
H    -0.964000000    -3.199000000     0.385000000
C     0.846000000    -0.868000000     0.515000000
H     1.476000000    -1.618000000     0.987000000
C     1.410000000     0.340000000     0.120000000
H     2.488000000     0.457000000     0.199000000
C     0.621000000     1.317000000    -0.575000000
C     1.270000000     2.590000000    -1.094000000
O     2.531000000     2.705000000    -0.994000000
O     0.692000000     3.526000000    -1.626000000
O     2.369000000    -0.894000000    -4.913000000
H     2.639000000    -0.046000000    -4.562000000
H     1.474000000    -0.751000000    -5.222000000
O     3.664000000     4.962000000    -0.916000000
H     3.137000000     4.174000000    -1.047000000
H     3.899000000     5.243000000    -1.801000000
O     3.451000000     1.159000000    -3.627000000
H     4.127000000     1.664000000    -4.079000000
H     3.107000000     1.758000000    -2.964000000
O    -5.508000000    -3.919000000     1.784000000
H    -6.015000000    -3.152000000     2.051000000
H    -4.835000000    -3.569000000     1.199000000
O     3.327000000    -4.256000000    -0.305000000
H     2.654000000    -4.047000000     0.343000000
H     3.902000000    -4.880000000     0.139000000
O     4.934000000    -3.732000000    -2.351000000
H     4.290000000    -3.853000000    -1.652000000
H     5.489000000    -3.016000000    -2.043000000
O    -1.400000000     4.313000000     0.004000000
H    -0.983000000     4.833000000     0.691000000
H    -0.675000000     4.022000000    -0.550000000
O    -3.409000000     2.617000000     0.489000000
H    -3.733000000     3.113000000     1.241000000
H    -2.583000000     3.043000000     0.259000000
O    -0.354000000     6.727000000     1.630000000
H    -0.329000000     7.021000000     0.720000000
H    -0.065000000     7.486000000     2.136000000
O    -0.836000000    -2.875000000     6.400000000
H    -0.062000000    -2.757000000     6.952000000
H    -0.697000000    -2.280000000     5.663000000
O     2.509000000     5.641000000     2.994000000
H     2.801000000     4.838000000     2.561000000
H     2.498000000     6.297000000     2.297000000
O     2.911000000     1.894000000     5.539000000
H     2.804000000     1.501000000     4.673000000
H     2.964000000     1.147000000     6.136000000
O    -5.172000000    -0.661000000     1.456000000
H    -4.382000000    -0.243000000     1.799000000
H    -5.774000000    -0.684000000     2.201000000
O    -5.718000000     2.576000000    -3.188000000
H    -5.427000000     3.484000000    -3.100000000
H    -5.053000000     2.066000000    -2.725000000
O     4.921000000    -0.521000000     1.121000000
H     5.302000000     0.345000000     1.263000000
H     4.800000000    -0.577000000     0.173000000
O    -2.200000000     2.407000000    -4.323000000
H    -2.965000000     2.583000000    -4.871000000
H    -1.600000000     3.130000000    -4.509000000
O     1.280000000     8.672000000    -1.841000000
H     2.149000000     8.863000000    -2.194000000
H     1.281000000     7.725000000    -1.701000000
O    -0.594000000     7.851000000    -3.845000000
H    -0.062000000     8.446000000    -3.317000000
H    -1.080000000     7.332000000    -3.205000000
O     5.888000000     1.934000000     1.448000000
H     6.018000000     2.266000000     0.560000000
H     6.346000000     2.560000000     2.008000000
O    -6.636000000     2.736000000    -0.300000000
H    -5.781000000     2.308000000    -0.256000000
H    -6.486000000     3.609000000     0.062000000
O    -2.083000000    -6.194000000    -0.028000000
H    -1.364000000    -6.166000000    -0.659000000
H    -2.361000000    -7.110000000    -0.023000000
O    -2.217000000    -2.424000000    -2.120000000
H    -2.467000000    -1.590000000    -2.518000000
H    -1.264000000    -2.380000000    -2.050000000
O     1.467000000     2.421000000    -5.989000000
H     0.976000000     3.089000000    -5.511000000
H     2.330000000     2.417000000    -5.575000000
O    -6.198000000    -3.607000000    -1.504000000
H    -5.331000000    -3.835000000    -1.167000000
H    -6.161000000    -2.660000000    -1.637000000
O     0.219000000    -6.113000000    -1.201000000
H     0.560000000    -5.219000000    -1.232000000
H     0.995000000    -6.668000000    -1.286000000
O     1.562000000    -4.574000000    -3.340000000
H     2.357000000    -5.104000000    -3.401000000
H     1.484000000    -4.159000000    -4.199000000
O    -6.242000000    -0.840000000    -1.262000000
H    -6.094000000    -0.573000000    -0.355000000
H    -5.576000000    -0.368000000    -1.762000000
O     2.140000000    -2.492000000     4.023000000
H     3.025000000    -2.843000000     4.122000000
H     1.783000000    -2.955000000     3.265000000
O    -2.601000000    -0.710000000     5.735000000
H    -2.581000000    -1.599000000     6.089000000
H    -1.722000000    -0.572000000     5.383000000
O     2.808000000    -0.975000000     6.088000000
H     2.545000000    -1.627000000     5.439000000
H     2.100000000    -0.978000000     6.732000000
O     3.263000000     7.445000000     1.129000000
H     3.484000000     6.746000000     0.514000000
H     3.522000000     8.250000000     0.681000000
O    -0.447000000    -5.797000000     2.832000000
H    -1.261000000    -5.898000000     2.337000000
H    -0.714000000    -5.869000000     3.748000000
O    -0.148000000     4.295000000    -4.132000000
H     0.239000000     4.089000000    -3.280000000
H    -0.022000000     5.238000000    -4.231000000
O    -4.074000000     0.964000000    -1.528000000
H    -3.569000000     1.336000000    -0.806000000
H    -3.446000000     0.424000000    -2.007000000
O     0.107000000    -0.674000000     4.360000000
H     0.978000000    -0.992000000     4.124000000
H     0.062000000     0.204000000     3.982000000
O     3.125000000     3.272000000     1.755000000
H     4.079000000     3.201000000     1.774000000
H     2.867000000     2.821000000     0.951000000
O     0.530000000    -2.507000000    -2.167000000
H     1.005000000    -3.168000000    -2.670000000
H     1.196000000    -2.110000000    -1.605000000
O    -2.346000000    -0.155000000    -3.507000000
H    -2.378000000     0.732000000    -3.866000000
H    -1.412000000    -0.346000000    -3.424000000
O     5.795000000     2.684000000    -1.168000000
H     6.267000000     3.505000000    -1.030000000
H     4.885000000     2.950000000    -1.300000000
O     5.367000000    -0.990000000    -1.487000000
H     6.146000000    -0.487000000    -1.721000000
H     4.706000000    -0.719000000    -2.124000000
O     4.405000000     4.519000000    -3.624000000
H     4.099000000     5.276000000    -4.124000000
H     4.809000000     3.948000000    -4.277000000
O     1.408000000    -3.913000000     1.750000000
H     0.978000000    -3.468000000     1.020000000
H     0.765000000    -4.556000000     2.051000000
O     1.256000000     6.067000000    -1.317000000
H     0.824000000     5.243000000    -1.542000000
H     2.186000000     5.844000000    -1.265000000
O    -2.307000000     5.671000000    -2.349000000
H    -3.057000000     5.118000000    -2.569000000
H    -2.220000000     5.589000000    -1.400000000
O     3.264000000     0.729000000     3.095000000
H     3.089000000     1.619000000     2.790000000
H     3.624000000     0.280000000     2.329000000
O    -3.700000000    -5.267000000    -3.130000000
H    -3.710000000    -4.934000000    -2.232000000
H    -2.791000000    -5.531000000    -3.277000000
O    -3.705000000     1.046000000     3.456000000
H    -2.975000000     0.594000000     3.878000000
H    -3.343000000     1.892000000     3.192000000
O    -3.604000000    -4.152000000    -0.695000000
H    -3.110000000    -3.415000000    -1.054000000
H    -2.934000000    -4.782000000    -0.430000000
