161
-3032.79693
C     0.473000000     0.442000000    -1.301000000
H     0.746000000     0.889000000    -2.254000000
C    -0.868000000     0.288000000    -0.974000000
H    -1.624000000     0.458000000    -1.737000000
C    -1.226000000    -0.083000000     0.329000000
C    -2.595000000    -0.383000000     0.684000000
H    -3.048000000     0.548000000     1.031000000
H    -3.161000000    -0.885000000    -0.104000000
H    -2.562000000    -1.098000000     1.509000000
C    -0.218000000    -0.357000000     1.317000000
H    -0.471000000    -0.581000000     2.350000000
C     1.134000000    -0.190000000     0.939000000
H     1.973000000    -0.278000000     1.625000000
C     1.485000000     0.154000000    -0.407000000
C     2.924000000     0.370000000    -0.889000000
O     3.810000000     0.316000000    -0.055000000
O     3.220000000     0.388000000    -2.061000000
O     6.519000000     1.466000000    -5.320000000
H     7.101000000     2.224000000    -5.256000000
H     5.925000000     1.557000000    -4.575000000
O     2.152000000     2.419000000     2.307000000
H     2.700000000     2.221000000     1.547000000
H     1.994000000     3.361000000     2.250000000
O    -0.033000000    -1.265000000    -5.372000000
H    -0.638000000    -0.548000000    -5.185000000
H     0.355000000    -1.478000000    -4.524000000
O     0.100000000    -3.805000000    -0.443000000
H    -0.231000000    -3.846000000     0.455000000
H     1.026000000    -3.584000000    -0.347000000
O     4.835000000     2.578000000    -3.173000000
H     4.612000000     1.703000000    -2.854000000
H     4.105000000     3.129000000    -2.890000000
O     7.740000000     1.051000000     1.977000000
H     8.599000000     1.366000000     2.259000000
H     7.858000000     0.829000000     1.053000000
O    -2.884000000    -1.013000000     5.199000000
H    -3.651000000    -1.334000000     4.724000000
H    -2.878000000    -0.070000000     5.033000000
O     2.904000000     1.136000000     4.590000000
H     3.375000000     0.356000000     4.299000000
H     2.737000000     1.629000000     3.786000000
O     5.078000000     2.962000000     0.487000000
H     5.050000000     2.134000000     0.009000000
H     5.669000000     3.515000000    -0.024000000
O    -2.399000000     2.591000000     2.504000000
H    -1.492000000     2.315000000     2.374000000
H    -2.667000000     2.158000000     3.314000000
O     2.435000000     4.725000000    -2.801000000
H     1.939000000     5.229000000    -2.156000000
H     3.213000000     5.256000000    -2.973000000
O    -3.940000000    -5.123000000    -1.838000000
H    -3.320000000    -4.418000000    -1.653000000
H    -4.519000000    -4.764000000    -2.510000000
O     4.945000000     4.952000000     2.433000000
H     4.018000000     5.191000000     2.464000000
H     4.962000000     4.124000000     1.952000000
O    -4.070000000    -4.916000000     4.254000000
H    -4.537000000    -4.743000000     3.437000000
H    -3.203000000    -4.533000000     4.120000000
O     1.690000000     4.643000000    -5.633000000
H     1.443000000     5.564000000    -5.722000000
H     2.017000000     4.570000000    -4.736000000
O    -6.022000000     0.544000000     2.414000000
H    -6.061000000     0.806000000     3.334000000
H    -5.584000000     1.274000000     1.976000000
O     0.201000000    -4.158000000     2.689000000
H    -0.717000000    -4.337000000     2.485000000
H     0.685000000    -4.861000000     2.256000000
O     5.080000000     1.031000000     2.660000000
H     4.685000000     1.806000000     2.259000000
H     5.948000000     0.972000000     2.261000000
O    -2.941000000     1.953000000     5.226000000
H    -3.541000000     2.381000000     5.836000000
H    -2.271000000     1.560000000     5.786000000
O    -0.153000000    -1.211000000     5.519000000
H    -1.073000000    -1.069000000     5.296000000
H     0.315000000    -1.096000000     4.692000000
O    -1.185000000    -3.823000000     5.283000000
H    -0.816000000    -2.942000000     5.347000000
H    -0.634000000    -4.268000000     4.640000000
O     4.934000000    -1.931000000    -1.976000000
H     5.785000000    -1.585000000    -2.244000000
H     4.329000000    -1.199000000    -2.095000000
O    -2.243000000    -4.719000000     1.796000000
H    -2.091000000    -5.661000000     1.723000000
H    -3.161000000    -4.605000000     1.549000000
O     7.608000000     1.968000000    -2.638000000
H     7.043000000     2.702000000    -2.399000000
H     7.375000000     1.274000000    -2.021000000
O    -7.209000000     4.000000000     1.907000000
H    -7.177000000     3.694000000     2.813000000
H    -6.452000000     3.591000000     1.488000000
O     7.114000000    -1.947000000     1.188000000
H     6.251000000    -1.850000000     1.592000000
H     7.184000000    -2.881000000     0.993000000
O    -5.884000000     1.438000000    -2.620000000
H    -5.212000000     1.451000000    -1.938000000
H    -6.535000000     2.076000000    -2.327000000
O     4.580000000    -1.570000000     2.396000000
H     4.747000000    -0.628000000     2.355000000
H     3.926000000    -1.727000000     1.715000000
O     1.735000000    -1.948000000     3.546000000
H     1.248000000    -2.710000000     3.231000000
H     2.498000000    -2.318000000     3.989000000
O    -5.007000000    -4.456000000     1.797000000
H    -5.765000000    -5.036000000     1.718000000
H    -5.368000000    -3.575000000     1.703000000
O     0.366000000     1.393000000     5.256000000
H     1.216000000     1.319000000     4.823000000
H     0.300000000     0.602000000     5.791000000
O     2.320000000     1.134000000    -4.587000000
H     3.067000000     1.158000000    -5.184000000
H     2.710000000     1.013000000    -3.721000000
O    -4.649000000     2.411000000     1.125000000
H    -3.877000000     2.728000000     1.593000000
H    -4.306000000     2.074000000     0.297000000
O    -0.171000000     2.642000000    -5.833000000
H     0.176000000     3.439000000    -5.434000000
H     0.442000000     1.956000000    -5.570000000
O     4.989000000    -2.199000000     5.019000000
H     5.765000000    -2.758000000     5.067000000
H     5.011000000    -1.834000000     4.134000000
O    -1.174000000     3.443000000    -2.653000000
H    -0.272000000     3.176000000    -2.474000000
H    -1.179000000     3.660000000    -3.585000000
O    -6.876000000    -2.351000000     1.310000000
H    -7.357000000    -1.748000000     1.877000000
H    -6.230000000    -1.801000000     0.868000000
O    -2.225000000     0.466000000    -4.828000000
H    -1.906000000     1.368000000    -4.857000000
H    -3.135000000     0.524000000    -5.119000000
O    -3.191000000    -3.774000000    -4.279000000
H    -2.685000000    -3.330000000    -3.599000000
H    -4.092000000    -3.486000000    -4.134000000
O    -2.035000000     4.652000000     0.415000000
H    -2.324000000     3.931000000     0.973000000
H    -2.180000000     4.337000000    -0.478000000
O     6.523000000     0.243000000    -0.465000000
H     6.749000000    -0.518000000     0.070000000
H     5.567000000     0.241000000    -0.493000000
O    -2.120000000    -2.348000000    -1.943000000
H    -1.514000000    -2.479000000    -1.214000000
H    -2.361000000    -1.423000000    -1.891000000
O    -4.719000000     2.858000000    -4.714000000
H    -4.766000000     3.716000000    -4.292000000
H    -5.013000000     2.244000000    -4.041000000
O     2.758000000    -2.984000000    -0.691000000
H     3.131000000    -3.534000000    -0.003000000
H     3.487000000    -2.436000000    -0.983000000
O    -7.923000000    -0.257000000    -1.617000000
H    -7.038000000     0.087000000    -1.740000000
H    -8.492000000     0.388000000    -2.038000000
O     1.529000000    -1.966000000    -2.887000000
H     2.153000000    -1.245000000    -2.811000000
H     1.709000000    -2.521000000    -2.128000000
O    -3.464000000     2.781000000    -1.512000000
H    -4.026000000     3.380000000    -2.004000000
H    -2.592000000     2.910000000    -1.886000000
O    -5.265000000    -1.971000000     3.914000000
H    -6.105000000    -1.995000000     4.372000000
H    -5.472000000    -1.609000000     3.052000000
