161
-3050.21975
C     0.347000000    -0.932000000    -0.999000000
H     0.449000000    -1.754000000    -1.703000000
C    -0.572000000    -1.144000000     0.027000000
H    -1.224000000    -1.997000000    -0.142000000
C    -0.780000000    -0.093000000     0.926000000
C    -1.930000000    -0.340000000     1.959000000
H    -1.669000000    -0.983000000     2.802000000
H    -2.237000000     0.575000000     2.470000000
H    -2.764000000    -0.807000000     1.430000000
C    -0.118000000     1.095000000     0.780000000
H    -0.329000000     1.900000000     1.480000000
C     0.876000000     1.253000000    -0.195000000
H     1.456000000     2.170000000    -0.130000000
C     1.124000000     0.211000000    -1.084000000
C     2.210000000     0.253000000    -2.208000000
O     3.010000000     1.182000000    -2.311000000
O     2.147000000    -0.586000000    -3.099000000
O     1.956000000     5.089000000     0.852000000
H     1.356000000     4.685000000     0.226000000
H     1.483000000     5.855000000     1.177000000
O     0.031000000    -4.787000000    -4.799000000
H    -0.115000000    -4.436000000    -5.678000000
H     0.569000000    -4.127000000    -4.363000000
O     0.872000000    -4.466000000    -0.701000000
H     0.235000000    -4.556000000     0.009000000
H     1.041000000    -5.363000000    -0.987000000
O     4.251000000     1.507000000    -4.652000000
H     4.273000000     0.605000000    -4.971000000
H     3.843000000     1.446000000    -3.788000000
O    -2.114000000    -1.098000000    -3.831000000
H    -1.309000000    -0.615000000    -4.016000000
H    -1.909000000    -1.618000000    -3.054000000
O     3.269000000     0.667000000     3.069000000
H     2.444000000     0.713000000     3.552000000
H     3.276000000    -0.210000000     2.687000000
O    -6.286000000     2.735000000     4.536000000
H    -6.330000000     3.411000000     5.212000000
H    -5.357000000     2.508000000     4.484000000
O     0.590000000    -3.141000000     6.273000000
H     0.988000000    -3.846000000     6.783000000
H    -0.352000000    -3.260000000     6.395000000
O     0.590000000     3.550000000     4.943000000
H     0.314000000     2.654000000     4.749000000
H     0.162000000     4.083000000     4.274000000
O     4.976000000     2.159000000    -0.601000000
H     4.243000000     1.941000000    -1.176000000
H     4.563000000     2.486000000     0.199000000
O    -4.315000000    -4.213000000    -0.882000000
H    -3.889000000    -3.622000000    -1.504000000
H    -4.576000000    -4.968000000    -1.410000000
O    -2.259000000    -3.826000000     6.348000000
H    -2.763000000    -3.404000000     5.652000000
H    -2.402000000    -4.763000000     6.213000000
O    -4.178000000    -2.719000000    -3.411000000
H    -4.013000000    -3.555000000    -3.848000000
H    -3.429000000    -2.173000000    -3.651000000
O     0.211000000     0.691000000     4.936000000
H    -0.692000000     0.374000000     4.944000000
H     0.653000000     0.169000000     5.605000000
O     0.227000000     0.672000000    -4.440000000
H     0.549000000     1.535000000    -4.178000000
H     0.890000000     0.061000000    -4.118000000
O    -1.338000000    -4.710000000     1.106000000
H    -1.000000000    -4.365000000     1.932000000
H    -2.267000000    -4.869000000     1.274000000
O    -1.116000000     0.748000000    -6.789000000
H    -1.753000000     1.316000000    -6.355000000
H    -0.437000000     0.602000000    -6.130000000
O     3.569000000     3.004000000     1.645000000
H     2.814000000     3.591000000     1.611000000
H     3.222000000     2.187000000     2.003000000
O    -3.563000000     2.103000000     4.793000000
H    -3.179000000     2.842000000     5.265000000
H    -3.056000000     1.345000000     5.082000000
O     7.013000000    -2.401000000    -2.478000000
H     6.675000000    -1.520000000    -2.639000000
H     6.374000000    -2.797000000    -1.884000000
O    -6.616000000    -0.470000000     0.963000000
H    -6.753000000     0.475000000     0.899000000
H    -6.751000000    -0.793000000     0.072000000
O    -6.244000000    -1.913000000     3.280000000
H    -6.429000000    -1.105000000     3.758000000
H    -6.071000000    -1.626000000     2.383000000
O    -0.327000000    -4.066000000     3.495000000
H    -0.394000000    -3.663000000     4.360000000
H     0.496000000    -4.553000000     3.520000000
O     3.990000000    -1.219000000    -5.104000000
H     3.877000000    -2.168000000    -5.052000000
H     3.205000000    -0.862000000    -4.689000000
O    -4.041000000    -4.717000000     1.852000000
H    -4.827000000    -5.188000000     2.130000000
H    -4.199000000    -4.511000000     0.930000000
O     2.837000000    -2.667000000    -0.380000000
H     2.820000000    -2.210000000    -1.221000000
H     2.070000000    -3.239000000    -0.404000000
O     1.602000000    -1.840000000    -6.924000000
H     1.318000000    -0.928000000    -6.869000000
H     0.843000000    -2.345000000    -6.633000000
O     5.742000000    -0.565000000     0.856000000
H     5.850000000     0.383000000     0.927000000
H     4.899000000    -0.677000000     0.417000000
O    -5.336000000     2.584000000    -0.321000000
H    -5.319000000     3.325000000     0.285000000
H    -4.499000000     2.141000000    -0.182000000
O     2.219000000    -1.623000000     5.071000000
H     2.079000000    -1.876000000     4.158000000
H     1.580000000    -2.138000000     5.563000000
O     2.318000000    -2.335000000     2.309000000
H     1.391000000    -2.385000000     2.074000000
H     2.778000000    -2.670000000     1.540000000
O     4.450000000    -4.129000000    -4.280000000
H     5.244000000    -3.701000000    -4.602000000
H     4.483000000    -5.009000000    -4.656000000
O    -5.951000000    -0.339000000    -1.697000000
H    -5.376000000    -0.959000000    -2.146000000
H    -5.827000000     0.486000000    -2.166000000
O    -1.110000000    -6.983000000    -0.622000000
H    -1.976000000    -7.369000000    -0.493000000
H    -1.102000000    -6.216000000    -0.049000000
O     7.797000000     3.017000000    -1.250000000
H     6.854000000     2.855000000    -1.222000000
H     8.125000000     2.662000000    -0.425000000
O    -3.628000000    -3.241000000     4.047000000
H    -4.484000000    -2.886000000     3.807000000
H    -3.430000000    -3.874000000     3.357000000
O     6.520000000     0.606000000    -2.774000000
H     5.628000000     0.945000000    -2.855000000
H     6.694000000     0.612000000    -1.833000000
O     1.343000000     2.881000000    -3.385000000
H     2.030000000     2.311000000    -3.039000000
H     0.933000000     3.260000000    -2.608000000
O    -4.306000000     4.541000000     1.792000000
H    -4.275000000     4.341000000     2.728000000
H    -5.101000000     5.062000000     1.685000000
O     1.103000000     3.758000000    -5.990000000
H     1.949000000     3.852000000    -6.428000000
H     1.319000000     3.429000000    -5.118000000
O    -0.414000000     4.932000000     2.883000000
H    -0.902000000     4.544000000     2.156000000
H    -1.089000000     5.243000000     3.486000000
O    -2.350000000     1.837000000    -1.014000000
H    -1.581000000     2.391000000    -0.883000000
H    -1.992000000     0.964000000    -1.176000000
O     3.954000000     3.227000000    -6.667000000
H     4.454000000     4.005000000    -6.420000000
H     4.158000000     2.585000000    -5.987000000
O    -1.856000000     5.203000000     0.555000000
H    -1.866000000     6.039000000     0.089000000
H    -2.735000000     5.126000000     0.927000000
O    -1.217000000    -3.582000000    -2.459000000
H    -0.651000000    -3.971000000    -1.793000000
H    -1.135000000    -4.165000000    -3.214000000
O     2.025000000    -3.254000000    -3.846000000
H     2.342000000    -2.424000000    -3.490000000
H     2.820000000    -3.750000000    -4.042000000
O    -0.055000000     4.329000000    -1.194000000
H    -0.517000000     4.729000000    -0.457000000
H     0.126000000     5.058000000    -1.787000000
O    -2.602000000    -0.317000000     5.252000000
H    -3.057000000    -0.378000000     6.092000000
H    -3.036000000    -0.964000000     4.697000000
