161
-3062.40901
C    -0.621000000    -1.077000000    -0.797000000
H    -0.790000000    -2.040000000    -1.273000000
C     0.731000000    -0.831000000    -0.612000000
H     1.383000000    -1.556000000    -1.093000000
C     1.215000000     0.158000000     0.219000000
C     2.693000000     0.329000000     0.347000000
H     3.183000000     0.250000000    -0.626000000
H     2.822000000     1.329000000     0.765000000
H     3.063000000    -0.412000000     1.058000000
C     0.263000000     1.097000000     0.687000000
H     0.678000000     1.941000000     1.231000000
C    -1.100000000     0.900000000     0.503000000
H    -1.863000000     1.515000000     0.973000000
C    -1.542000000    -0.191000000    -0.165000000
C    -2.981000000    -0.423000000    -0.384000000
O    -3.735000000     0.306000000     0.229000000
O    -3.406000000    -1.302000000    -1.061000000
O    -3.357000000     5.622000000     1.851000000
H    -3.880000000     5.996000000     2.561000000
H    -3.929000000     4.966000000     1.452000000
O    -5.502000000    -2.811000000    -1.979000000
H    -5.100000000    -2.128000000    -1.443000000
H    -5.764000000    -3.485000000    -1.353000000
O    -6.053000000     0.859000000    -5.074000000
H    -6.541000000     1.674000000    -4.956000000
H    -5.627000000     0.710000000    -4.230000000
O     3.754000000    -3.153000000    -0.521000000
H     4.083000000    -2.467000000    -1.102000000
H     3.128000000    -3.641000000    -1.057000000
O     0.183000000     0.347000000    -4.934000000
H    -0.318000000    -0.461000000    -4.821000000
H     1.050000000     0.054000000    -5.214000000
O    -0.730000000     0.693000000     3.796000000
H    -1.113000000     1.479000000     3.408000000
H     0.191000000     0.721000000     3.537000000
O    -0.697000000    -2.099000000    -4.844000000
H    -0.717000000    -2.583000000    -5.670000000
H    -1.459000000    -2.417000000    -4.361000000
O    -1.197000000    -5.013000000    -2.803000000
H    -1.611000000    -5.687000000    -2.263000000
H    -1.863000000    -4.332000000    -2.889000000
O     6.754000000    -2.335000000    -2.396000000
H     6.099000000    -1.672000000    -2.618000000
H     6.257000000    -3.151000000    -2.337000000
O    -4.825000000    -3.141000000     3.780000000
H    -4.763000000    -2.937000000     2.847000000
H    -4.801000000    -2.288000000     4.214000000
O    -5.337000000     1.654000000     1.694000000
H    -5.806000000     2.344000000     1.224000000
H    -4.732000000     1.291000000     1.047000000
O     4.027000000     3.408000000     2.113000000
H     3.117000000     3.483000000     2.401000000
H     4.536000000     3.803000000     2.821000000
O     1.633000000     3.860000000     2.808000000
H     1.216000000     4.516000000     3.365000000
H     0.905000000     3.427000000     2.361000000
O    -0.936000000    -3.101000000     2.224000000
H    -0.925000000    -2.150000000     2.332000000
H    -1.501000000    -3.250000000     1.467000000
O    -5.348000000     4.024000000    -0.180000000
H    -4.683000000     3.994000000    -0.868000000
H    -5.994000000     4.654000000    -0.498000000
O     4.233000000    -1.319000000    -2.738000000
H     3.523000000    -1.514000000    -3.350000000
H     4.496000000    -0.424000000    -2.952000000
O     4.097000000     1.205000000    -4.135000000
H     3.970000000     1.991000000    -4.667000000
H     3.403000000     1.248000000    -3.477000000
O     1.948000000    -4.595000000    -2.461000000
H     1.152000000    -5.099000000    -2.291000000
H     2.641000000    -5.252000000    -2.516000000
O     6.383000000     1.508000000     1.979000000
H     5.630000000     1.642000000     1.403000000
H     6.578000000     2.379000000     2.325000000
O     2.170000000    -1.711000000     3.383000000
H     2.200000000    -0.755000000     3.336000000
H     2.843000000    -1.940000000     4.024000000
O    -1.392000000     3.805000000    -1.019000000
H    -0.883000000     3.138000000    -1.480000000
H    -2.237000000     3.816000000    -1.469000000
O    -3.864000000     3.260000000    -2.307000000
H    -3.372000000     3.632000000    -3.039000000
H    -4.263000000     2.467000000    -2.666000000
O    -5.995000000    -4.934000000    -0.334000000
H    -5.641000000    -5.118000000     0.536000000
H    -6.199000000    -5.796000000    -0.696000000
O     4.514000000     6.315000000     0.355000000
H     3.949000000     5.542000000     0.338000000
H     4.043000000     6.968000000    -0.162000000
O     1.879000000     4.772000000     0.263000000
H     0.968000000     5.063000000     0.228000000
H     1.941000000     4.274000000     1.078000000
O    -8.177000000     0.054000000    -1.142000000
H    -8.756000000     0.397000000    -0.462000000
H    -7.615000000     0.793000000    -1.374000000
O     4.790000000    -0.566000000     3.887000000
H     5.372000000    -0.289000000     3.180000000
H     5.100000000    -1.439000000     4.126000000
O     2.557000000    -3.980000000     1.754000000
H     2.009000000    -3.267000000     2.082000000
H     2.989000000    -3.614000000     0.982000000
O    -2.960000000    -2.312000000    -3.429000000
H    -3.815000000    -2.521000000    -3.806000000
H    -3.156000000    -2.021000000    -2.539000000
O    -0.781000000     5.965000000     1.020000000
H    -0.796000000     5.177000000     0.476000000
H    -1.693000000     6.095000000     1.279000000
O    -5.028000000     0.805000000    -2.247000000
H    -4.787000000     1.243000000    -1.431000000
H    -4.748000000    -0.102000000    -2.123000000
O    -5.780000000    -3.221000000    -4.664000000
H    -6.601000000    -2.900000000    -5.039000000
H    -5.843000000    -3.008000000    -3.733000000
O     7.021000000     0.943000000    -4.199000000
H     6.960000000     0.922000000    -3.244000000
H     6.119000000     1.072000000    -4.494000000
O    -3.983000000    -0.481000000     4.748000000
H    -3.240000000    -0.076000000     4.300000000
H    -4.711000000     0.122000000     4.596000000
O    -5.216000000    -2.196000000     1.368000000
H    -5.235000000    -1.268000000     1.136000000
H    -6.129000000    -2.416000000     1.550000000
O     6.607000000    -3.404000000     0.535000000
H     6.258000000    -2.903000000    -0.202000000
H     6.264000000    -4.289000000     0.407000000
O     1.972000000    -2.566000000    -4.151000000
H     2.013000000    -3.398000000    -3.680000000
H     1.091000000    -2.544000000    -4.524000000
O    -5.250000000     1.827000000     4.536000000
H    -5.269000000     1.938000000     3.586000000
H    -5.200000000     2.719000000     4.881000000
O    -2.938000000    -3.502000000     0.279000000
H    -2.967000000    -2.922000000    -0.483000000
H    -3.714000000    -3.268000000     0.788000000
O    -0.160000000     1.725000000    -2.540000000
H    -0.054000000     1.449000000    -3.450000000
H    -0.347000000     0.916000000    -2.065000000
O     2.287000000     1.048000000     3.774000000
H     2.309000000     1.612000000     4.546000000
H     3.203000000     0.817000000     3.620000000
O    -1.676000000    -6.172000000     0.543000000
H    -0.871000000    -6.118000000     1.058000000
H    -2.118000000    -5.337000000     0.700000000
O    -1.621000000     3.284000000     3.122000000
H    -2.365000000     3.828000000     2.864000000
H    -1.194000000     3.779000000     3.821000000
O     2.401000000     2.869000000    -1.882000000
H     1.875000000     3.649000000    -1.705000000
H     1.767000000     2.213000000    -2.174000000
O     4.759000000     3.135000000    -0.525000000
H     4.007000000     2.947000000    -1.086000000
H     4.383000000     3.259000000     0.347000000
O     6.236000000     0.925000000    -1.628000000
H     5.923000000     1.687000000    -1.142000000
H     7.041000000     0.668000000    -1.179000000
O    -8.403000000     1.297000000     2.499000000
H    -8.562000000     0.520000000     3.035000000
H    -7.609000000     1.089000000     2.006000000
O    -4.077000000    -5.683000000    -2.412000000
H    -4.159000000    -4.759000000    -2.176000000
H    -3.989000000    -6.136000000    -1.573000000
