161
-3069.59657
C     1.263000000    -0.581000000     0.544000000
H     2.183000000    -0.979000000     0.964000000
C    -0.015000000    -0.858000000     1.047000000
H    -0.068000000    -1.497000000     1.926000000
C    -1.137000000    -0.290000000     0.415000000
C    -2.536000000    -0.457000000     0.991000000
H    -3.247000000     0.291000000     0.633000000
H    -2.862000000    -1.435000000     0.631000000
H    -2.533000000    -0.494000000     2.082000000
C    -0.940000000     0.523000000    -0.672000000
H    -1.820000000     0.816000000    -1.239000000
C     0.307000000     0.867000000    -1.120000000
H     0.385000000     1.453000000    -2.032000000
C     1.477000000     0.281000000    -0.552000000
C     2.850000000     0.627000000    -1.107000000
O     2.904000000     1.439000000    -1.987000000
O     3.791000000     0.290000000    -0.522000000
O     1.154000000     2.977000000    -6.597000000
H     0.369000000     2.443000000    -6.477000000
H     1.677000000     2.813000000    -5.812000000
O    -0.048000000    -2.718000000    -4.576000000
H     0.848000000    -2.924000000    -4.312000000
H    -0.026000000    -1.785000000    -4.788000000
O     6.736000000    -0.269000000     2.564000000
H     6.139000000     0.297000000     3.055000000
H     7.542000000    -0.271000000     3.080000000
O     2.587000000     0.914000000     3.542000000
H     3.293000000     1.146000000     4.146000000
H     2.834000000     1.327000000     2.715000000
O    -0.708000000     4.584000000     0.468000000
H    -1.445000000     4.434000000     1.059000000
H    -1.070000000     4.445000000    -0.407000000
O    -4.776000000     3.417000000    -3.431000000
H    -4.139000000     3.125000000    -4.083000000
H    -5.627000000     3.201000000    -3.812000000
O     8.224000000    -0.933000000     0.423000000
H     7.645000000    -0.385000000    -0.107000000
H     7.837000000    -0.912000000     1.298000000
O     4.002000000    -2.241000000    -1.735000000
H     4.013000000    -1.487000000    -1.145000000
H     4.900000000    -2.573000000    -1.716000000
O    -5.193000000    -2.050000000     3.822000000
H    -4.263000000    -2.260000000     3.907000000
H    -5.612000000    -2.892000000     3.642000000
O     5.710000000     2.892000000     3.677000000
H     5.221000000     2.609000000     2.904000000
H     6.129000000     3.710000000     3.409000000
O     4.102000000     4.662000000    -5.338000000
H     4.517000000     4.108000000    -4.677000000
H     4.323000000     4.245000000    -6.171000000
O     1.087000000    -0.553000000     6.169000000
H     1.136000000    -1.083000000     5.374000000
H     1.982000000    -0.242000000     6.307000000
O     2.462000000    -3.370000000    -3.908000000
H     2.890000000    -3.017000000    -3.128000000
H     3.039000000    -3.122000000    -4.631000000
O    -1.788000000    -4.103000000     0.800000000
H    -2.449000000    -4.646000000     1.230000000
H    -2.239000000    -3.735000000     0.040000000
O     1.893000000     3.516000000    -3.950000000
H     2.170000000     2.843000000    -3.328000000
H     2.709000000     3.929000000    -4.235000000
O    -2.974000000     4.495000000     2.212000000
H    -3.559000000     4.430000000     1.458000000
H    -3.442000000     4.049000000     2.918000000
O    -5.766000000     1.814000000     0.133000000
H    -5.937000000     1.373000000    -0.699000000
H    -6.155000000     1.240000000     0.793000000
O    -2.548000000     2.877000000    -5.218000000
H    -2.533000000     3.101000000    -6.149000000
H    -2.211000000     1.982000000    -5.181000000
O    -2.456000000     4.662000000    -1.895000000
H    -1.764000000     4.646000000    -2.556000000
H    -3.269000000     4.613000000    -2.397000000
O    -4.071000000    -1.588000000    -2.409000000
H    -4.013000000    -2.270000000    -3.078000000
H    -3.197000000    -1.559000000    -2.019000000
O     0.727000000    -4.686000000     1.755000000
H     1.188000000    -4.215000000     1.061000000
H    -0.194000000    -4.653000000     1.496000000
O     4.262000000    -1.965000000    -5.408000000
H     4.648000000    -1.254000000    -4.897000000
H     4.938000000    -2.196000000    -6.045000000
O    -0.134000000     0.062000000    -4.404000000
H     0.795000000     0.283000000    -4.340000000
H    -0.388000000     0.347000000    -5.282000000
O    -6.573000000    -0.272000000    -1.824000000
H    -5.829000000    -0.602000000    -2.329000000
H    -6.962000000     0.401000000    -2.383000000
O     7.112000000     1.305000000    -3.314000000
H     7.986000000     1.243000000    -2.930000000
H     6.527000000     0.976000000    -2.631000000
O     6.550000000    -2.574000000    -1.121000000
H     7.260000000    -2.246000000    -0.569000000
H     6.893000000    -3.386000000    -1.495000000
O    -7.783000000    -1.175000000     0.409000000
H    -7.517000000    -0.503000000     1.037000000
H    -7.423000000    -0.878000000    -0.427000000
O     2.116000000    -1.672000000     3.514000000
H     2.860000000    -1.907000000     2.960000000
H     2.044000000    -0.721000000     3.427000000
O     4.308000000     1.810000000     1.554000000
H     4.328000000     1.007000000     1.033000000
H     4.173000000     2.508000000     0.914000000
O    -0.466000000     4.614000000    -3.777000000
H    -0.991000000     4.228000000    -4.478000000
H     0.436000000     4.377000000    -3.994000000
O     2.400000000     0.550000000    -4.340000000
H     3.215000000     0.340000000    -4.797000000
H     2.681000000     0.856000000    -3.478000000
O     5.054000000    -2.541000000     1.914000000
H     5.345000000    -2.635000000     1.007000000
H     5.537000000    -1.782000000     2.242000000
O     5.184000000     3.632000000    -3.095000000
H     5.883000000     2.979000000    -3.057000000
H     4.858000000     3.686000000    -2.197000000
O     5.511000000     1.010000000    -5.728000000
H     5.604000000     1.492000000    -6.550000000
H     6.130000000     0.284000000    -5.804000000
O    -3.270000000    -3.115000000     6.217000000
H    -2.796000000    -2.632000000     5.539000000
H    -3.200000000    -2.563000000     6.996000000
O     0.211000000     3.195000000     2.851000000
H    -0.011000000     3.403000000     1.943000000
H     0.240000000     2.239000000     2.877000000
O     3.871000000     3.632000000    -0.622000000
H     3.313000000     3.002000000    -1.078000000
H     3.359000000     4.441000000    -0.610000000
O    -2.065000000    -3.105000000     3.469000000
H    -2.068000000    -3.144000000     2.513000000
H    -1.185000000    -3.390000000     3.718000000
O    -2.034000000    -5.750000000     4.491000000
H    -1.264000000    -5.465000000     4.984000000
H    -2.309000000    -4.971000000     4.007000000
O     1.940000000     5.276000000     0.098000000
H     1.023000000     5.040000000     0.239000000
H     2.128000000     5.924000000     0.777000000
O    -3.769000000    -5.707000000     1.508000000
H    -4.436000000    -6.162000000     2.022000000
H    -4.028000000    -5.849000000     0.598000000
O     1.565000000    -3.436000000    -0.396000000
H     2.400000000    -3.279000000    -0.837000000
H     1.113000000    -2.593000000    -0.432000000
O    -5.408000000    -2.946000000    -0.307000000
H    -5.275000000    -2.572000000    -1.177000000
H    -5.586000000    -2.191000000     0.254000000
O    -6.190000000     0.189000000     2.399000000
H    -6.505000000     0.767000000     3.094000000
H    -5.829000000    -0.567000000     2.862000000
O    -1.135000000    -1.949000000    -2.228000000
H    -0.886000000    -1.038000000    -2.068000000
H    -0.778000000    -2.145000000    -3.094000000
O     0.600000000    -3.860000000     4.556000000
H     1.111000000    -3.082000000     4.334000000
H     0.909000000    -4.532000000     3.948000000
O    -4.268000000     3.808000000     0.087000000
H    -3.630000000     3.635000000    -0.605000000
H    -4.670000000     2.957000000     0.261000000
O     6.305000000     0.933000000    -0.684000000
H     5.386000000     0.666000000    -0.712000000
H     6.342000000     1.593000000     0.007000000
