161
-3055.23146
C     1.200000000    -0.342000000     0.885000000
H     1.996000000    -0.770000000     1.489000000
C     0.055000000    -1.122000000     0.720000000
H     0.017000000    -2.072000000     1.246000000
C    -0.945000000    -0.727000000    -0.125000000
C    -2.206000000    -1.537000000    -0.217000000
H    -3.068000000    -0.891000000    -0.396000000
H    -2.053000000    -2.376000000    -0.898000000
H    -2.394000000    -2.100000000     0.700000000
C    -0.834000000     0.428000000    -0.876000000
H    -1.601000000     0.708000000    -1.593000000
C     0.247000000     1.260000000    -0.688000000
H     0.342000000     2.143000000    -1.314000000
C     1.250000000     0.907000000     0.173000000
C     2.367000000     1.890000000     0.229000000
O     2.296000000     2.975000000    -0.233000000
O     3.338000000     1.621000000     0.904000000
O     3.845000000    -1.087000000     3.387000000
H     3.506000000    -0.300000000     3.814000000
H     4.473000000    -0.759000000     2.744000000
O     2.122000000     0.578000000     4.814000000
H     2.246000000     1.453000000     4.447000000
H     1.621000000     0.724000000     5.617000000
O    -6.123000000     0.950000000     0.360000000
H    -6.215000000     1.863000000     0.634000000
H    -6.942000000     0.754000000    -0.096000000
O    -1.013000000     2.182000000    -4.636000000
H    -1.463000000     2.303000000    -3.800000000
H    -0.553000000     3.009000000    -4.782000000
O     1.425000000    -2.778000000    -3.368000000
H     1.006000000    -3.118000000    -2.578000000
H     0.711000000    -2.689000000    -3.999000000
O    -0.411000000    -5.575000000     0.643000000
H    -0.377000000    -6.330000000     0.055000000
H     0.032000000    -5.871000000     1.438000000
O     1.729000000    -3.203000000     3.302000000
H     2.079000000    -2.314000000     3.364000000
H     0.921000000    -3.179000000     3.814000000
O     5.203000000    -0.256000000     0.962000000
H     4.506000000     0.400000000     0.960000000
H     5.990000000     0.230000000     1.206000000
O    -4.887000000    -1.060000000     1.828000000
H    -4.658000000    -1.643000000     1.105000000
H    -5.433000000    -0.384000000     1.427000000
O     1.112000000    -5.856000000     3.412000000
H     1.524000000    -5.076000000     3.040000000
H     1.019000000    -5.656000000     4.344000000
O     2.419000000     0.394000000    -2.890000000
H     3.183000000     0.588000000    -3.434000000
H     2.613000000    -0.458000000    -2.501000000
O     4.730000000     6.413000000    -0.763000000
H     5.643000000     6.695000000    -0.812000000
H     4.375000000     6.601000000    -1.632000000
O     2.798000000    -5.882000000    -0.915000000
H     3.120000000    -5.086000000    -0.494000000
H     1.956000000    -5.630000000    -1.293000000
O    -0.933000000     1.274000000     2.906000000
H    -0.574000000     1.029000000     2.053000000
H    -1.445000000     0.513000000     3.179000000
O     1.840000000     3.170000000    -2.976000000
H     1.945000000     3.402000000    -2.053000000
H     1.890000000     2.214000000    -2.990000000
O    -2.886000000     4.166000000    -0.414000000
H    -3.515000000     4.223000000     0.305000000
H    -3.086000000     4.920000000    -0.968000000
O     3.054000000     6.270000000    -3.020000000
H     2.210000000     5.947000000    -2.702000000
H     2.979000000     7.223000000    -2.970000000
O     0.332000000    -0.302000000    -4.644000000
H     0.712000000    -0.063000000    -3.798000000
H    -0.095000000     0.499000000    -4.949000000
O     5.352000000     1.186000000     5.796000000
H     4.688000000     1.717000000     6.236000000
H     5.165000000     1.294000000     4.863000000
O    -4.388000000    -0.284000000    -2.847000000
H    -4.652000000    -1.183000000    -2.652000000
H    -3.712000000    -0.374000000    -3.520000000
O    -7.217000000     0.040000000    -2.858000000
H    -6.496000000     0.467000000    -3.322000000
H    -7.389000000     0.609000000    -2.108000000
O     0.480000000     4.316000000    -5.091000000
H     0.964000000     4.132000000    -4.286000000
H     1.153000000     4.367000000    -5.770000000
O     4.692000000    -3.787000000     3.506000000
H     5.491000000    -3.458000000     3.093000000
H     4.109000000    -3.029000000     3.537000000
O     2.152000000     5.659000000     0.474000000
H     2.130000000     4.703000000     0.434000000
H     2.747000000     5.915000000    -0.231000000
O    -5.620000000     2.467000000    -4.252000000
H    -4.908000000     2.580000000    -3.623000000
H    -5.267000000     1.868000000    -4.910000000
O    -0.617000000     3.770000000     3.786000000
H    -1.384000000     4.259000000     3.488000000
H    -0.692000000     2.919000000     3.354000000
O    -5.875000000    -4.774000000     2.208000000
H    -5.951000000    -5.536000000     2.782000000
H    -4.951000000    -4.528000000     2.257000000
O     1.899000000     3.052000000     4.211000000
H     0.995000000     3.263000000     3.978000000
H     2.218000000     3.833000000     4.664000000
O     3.211000000     7.208000000     2.591000000
H     2.580000000     7.921000000     2.693000000
H     2.895000000     6.717000000     1.832000000
O    -0.589000000     6.511000000     0.738000000
H     0.255000000     6.145000000     0.473000000
H    -1.036000000     5.788000000     1.178000000
O     5.183000000     3.781000000     0.676000000
H     5.013000000     4.565000000     0.154000000
H     4.335000000     3.339000000     0.727000000
O    -3.351000000     4.113000000    -5.288000000
H    -3.898000000     3.477000000    -5.749000000
H    -2.697000000     3.581000000    -4.833000000
O     0.278000000    -3.607000000    -1.141000000
H     0.167000000    -4.250000000    -0.440000000
H     0.451000000    -2.783000000    -0.684000000
O     7.259000000     4.101000000     2.684000000
H     6.777000000     4.844000000     3.048000000
H     6.765000000     3.854000000     1.903000000
O    -4.700000000    -3.161000000    -2.861000000
H    -5.486000000    -3.320000000    -2.337000000
H    -4.011000000    -3.653000000    -2.414000000
O    -1.458000000    -3.179000000     3.549000000
H    -1.814000000    -2.311000000     3.356000000
H    -1.846000000    -3.750000000     2.886000000
O     5.941000000    -3.116000000     1.227000000
H     6.813000000    -3.205000000     0.843000000
H     5.637000000    -2.256000000     0.934000000
O    -2.891000000    -4.531000000     1.154000000
H    -3.269000000    -4.905000000     0.358000000
H    -1.980000000    -4.823000000     1.148000000
O     2.989000000    -3.510000000     0.725000000
H     3.841000000    -3.191000000     1.025000000
H     2.424000000    -3.442000000     1.494000000
O    -2.962000000    -0.805000000     3.721000000
H    -3.510000000    -0.754000000     4.504000000
H    -3.584000000    -0.828000000     2.994000000
O    -3.433000000     2.205000000    -2.644000000
H    -3.840000000     1.459000000    -2.204000000
H    -3.182000000     2.795000000    -1.933000000
O    -5.334000000    -2.400000000    -5.353000000
H    -5.184000000    -2.314000000    -4.412000000
H    -4.516000000    -2.762000000    -5.693000000
O    -3.647000000    -5.226000000    -1.453000000
H    -4.162000000    -5.469000000    -2.222000000
H    -2.804000000    -5.660000000    -1.581000000
O     3.689000000    -1.660000000    -1.090000000
H     3.358000000    -0.978000000    -0.505000000
H     3.100000000    -2.401000000    -0.950000000
O    -0.075000000    -3.865000000     5.747000000
H    -0.716000000    -3.982000000     5.046000000
H    -0.138000000    -4.668000000     6.265000000
O     5.623000000    -1.603000000     5.546000000
H     5.670000000    -0.803000000     6.069000000
H     4.783000000    -1.544000000     5.092000000
O     4.514000000     1.800000000     3.269000000
H     3.807000000     1.933000000     2.638000000
H     4.983000000     2.634000000     3.284000000
O     6.797000000     2.590000000    -1.405000000
H     6.945000000     1.646000000    -1.351000000
H     6.073000000     2.754000000    -0.801000000
