161
-3033.20688
C    -0.075000000     0.375000000     1.472000000
H    -0.125000000     0.605000000     2.533000000
C    -1.031000000    -0.392000000     0.791000000
H    -1.824000000    -0.770000000     1.431000000
C    -0.875000000    -0.662000000    -0.601000000
C    -1.951000000    -1.391000000    -1.359000000
H    -2.330000000    -0.741000000    -2.151000000
H    -1.525000000    -2.291000000    -1.807000000
H    -2.737000000    -1.789000000    -0.714000000
C     0.285000000    -0.275000000    -1.290000000
H     0.431000000    -0.375000000    -2.363000000
C     1.314000000     0.389000000    -0.608000000
H     2.140000000     0.827000000    -1.162000000
C     1.068000000     0.834000000     0.738000000
C     2.133000000     1.660000000     1.522000000
O     3.138000000     2.065000000     0.891000000
O     1.959000000     1.926000000     2.681000000
O     1.490000000    -1.934000000     4.759000000
H     2.198000000    -1.411000000     4.384000000
H     0.919000000    -1.295000000     5.186000000
O     3.195000000    -0.175000000     4.006000000
H     3.965000000     0.237000000     4.398000000
H     2.915000000     0.440000000     3.327000000
O    -3.248000000    -1.921000000     3.367000000
H    -3.269000000    -1.799000000     4.316000000
H    -3.370000000    -1.041000000     3.010000000
O     1.218000000    -3.758000000    -2.601000000
H     1.999000000    -3.352000000    -2.224000000
H     1.490000000    -4.034000000    -3.476000000
O    -3.441000000     0.699000000     2.550000000
H    -4.151000000     1.100000000     3.051000000
H    -2.824000000     1.415000000     2.394000000
O     3.723000000     1.058000000    -3.993000000
H     4.491000000     0.487000000    -3.956000000
H     3.869000000     1.701000000    -3.299000000
O     0.928000000     2.951000000    -4.238000000
H     1.693000000     2.377000000    -4.265000000
H     1.288000000     3.823000000    -4.072000000
O     5.738000000     1.222000000     4.251000000
H     6.337000000     0.521000000     4.509000000
H     5.681000000     1.784000000     5.024000000
O     2.824000000    -1.305000000    -4.783000000
H     3.058000000    -0.389000000    -4.635000000
H     3.139000000    -1.761000000    -4.002000000
O    -4.779000000    -1.598000000    -4.080000000
H    -4.643000000    -0.842000000    -3.509000000
H    -4.633000000    -1.260000000    -4.964000000
O     1.972000000    -0.060000000     7.872000000
H     1.136000000    -0.516000000     7.778000000
H     1.895000000     0.703000000     7.298000000
O     2.663000000     5.703000000     5.437000000
H     3.598000000     5.833000000     5.282000000
H     2.444000000     4.918000000     4.935000000
O     1.036000000    -1.154000000    -7.123000000
H     1.452000000    -0.292000000    -7.098000000
H     1.610000000    -1.712000000    -6.597000000
O     5.332000000    -0.417000000    -0.892000000
H     5.504000000    -0.141000000     0.008000000
H     5.357000000     0.393000000    -1.400000000
O    -3.315000000    -4.179000000     1.421000000
H    -3.163000000    -3.388000000     1.939000000
H    -2.438000000    -4.500000000     1.212000000
O    -1.691000000     2.415000000     0.021000000
H    -1.341000000     1.525000000     0.009000000
H    -1.193000000     2.877000000    -0.654000000
O     4.138000000     2.467000000    -1.858000000
H     3.582000000     2.200000000    -1.126000000
H     4.213000000     3.417000000    -1.767000000
O    -0.478000000     4.011000000    -1.649000000
H     0.290000000     4.103000000    -1.085000000
H    -0.125000000     3.718000000    -2.489000000
O    -0.899000000    -5.611000000    -2.742000000
H    -0.803000000    -6.166000000    -1.969000000
H    -0.267000000    -4.904000000    -2.609000000
O     4.977000000     5.292000000    -1.252000000
H     5.630000000     5.698000000    -0.682000000
H     4.885000000     5.903000000    -1.984000000
O    -2.562000000     1.805000000     5.634000000
H    -2.634000000     2.759000000     5.616000000
H    -3.466000000     1.495000000     5.581000000
O     7.300000000     3.444000000    -2.360000000
H     7.589000000     4.159000000    -2.928000000
H     6.464000000     3.746000000    -2.003000000
O     1.568000000     6.599000000     1.873000000
H     2.033000000     6.253000000     2.634000000
H     1.541000000     5.868000000     1.255000000
O    -4.494000000     1.680000000    -0.578000000
H    -3.664000000     1.530000000    -0.126000000
H    -5.141000000     1.745000000     0.124000000
O     2.197000000     4.543000000    -0.030000000
H     2.797000000     3.896000000     0.341000000
H     2.721000000     5.010000000    -0.680000000
O    -1.582000000    -0.502000000    -7.193000000
H    -0.627000000    -0.564000000    -7.205000000
H    -1.856000000    -1.163000000    -6.557000000
O     3.715000000    -2.359000000    -2.351000000
H     3.875000000    -1.959000000    -1.496000000
H     4.566000000    -2.708000000    -2.616000000
O    -0.047000000     0.360000000     5.275000000
H    -0.801000000     0.689000000     4.786000000
H     0.474000000     1.140000000     5.466000000
O     0.162000000    -3.925000000    -5.353000000
H     0.015000000    -2.983000000    -5.265000000
H    -0.617000000    -4.326000000    -4.968000000
O    -2.951000000    -5.190000000    -4.594000000
H    -3.462000000    -5.873000000    -4.159000000
H    -2.149000000    -5.125000000    -4.076000000
O    -4.297000000     1.200000000    -3.521000000
H    -3.581000000     1.606000000    -4.010000000
H    -4.150000000     1.467000000    -2.614000000
O     1.783000000     2.384000000     5.417000000
H     2.636000000     2.581000000     5.805000000
H     1.990000000     2.001000000     4.565000000
O    -5.350000000    -2.274000000    -1.189000000
H    -4.849000000    -1.559000000    -0.796000000
H    -6.263000000    -2.065000000    -0.989000000
O     0.000000000    -3.977000000     3.659000000
H     0.521000000    -3.224000000     3.937000000
H    -0.907000000    -3.678000000     3.727000000
O     5.321000000     5.086000000     3.322000000
H     6.185000000     4.724000000     3.517000000
H     5.490000000     5.777000000     2.682000000
O    -2.260000000     2.502000000    -4.855000000
H    -2.379000000     3.442000000    -4.994000000
H    -1.319000000     2.399000000    -4.708000000
O    -6.855000000     0.251000000    -3.455000000
H    -5.926000000     0.402000000    -3.280000000
H    -6.878000000    -0.586000000    -3.918000000
O    -4.366000000    -4.833000000    -1.159000000
H    -4.548000000    -4.056000000    -1.688000000
H    -3.777000000    -4.521000000    -0.471000000
O     0.217000000     4.627000000     6.772000000
H     0.882000000     4.612000000     7.461000000
H     0.536000000     4.004000000     6.119000000
O    -0.744000000    -1.095000000     7.374000000
H    -0.967000000    -1.981000000     7.090000000
H    -0.708000000    -0.585000000     6.565000000
O    -0.974000000    -5.193000000     0.882000000
H    -0.237000000    -5.135000000     1.490000000
H    -0.681000000    -5.807000000     0.209000000
O    -2.619000000    -2.384000000    -5.213000000
H    -2.754000000    -3.321000000    -5.068000000
H    -3.087000000    -1.960000000    -4.494000000
O    -6.734000000    -3.597000000    -3.859000000
H    -7.294000000    -3.106000000    -4.460000000
H    -6.041000000    -2.982000000    -3.621000000
O     4.099000000    -3.076000000     3.255000000
H     3.986000000    -2.128000000     3.324000000
H     5.025000000    -3.222000000     3.451000000
O    -2.343000000     3.583000000     2.507000000
H    -2.105000000     3.516000000     1.583000000
H    -1.886000000     4.365000000     2.816000000
O     2.590000000     4.359000000     3.137000000
H     3.544000000     4.293000000     3.115000000
H     2.283000000     3.505000000     2.832000000
O     5.401000000     0.669000000     1.689000000
H     5.488000000     0.976000000     2.591000000
H     4.589000000     1.069000000     1.377000000
O    -5.892000000    -5.241000000     1.877000000
H    -5.020000000    -4.851000000     1.945000000
H    -5.766000000    -6.014000000     1.327000000
