161
-3054.54834
C     0.025000000    -0.273000000     1.528000000
H    -0.123000000    -0.425000000     2.594000000
C    -1.024000000    -0.636000000     0.614000000
H    -1.931000000    -1.121000000     0.964000000
C    -0.828000000    -0.442000000    -0.747000000
C    -1.789000000    -0.925000000    -1.821000000
H    -1.408000000    -1.875000000    -2.201000000
H    -2.824000000    -1.000000000    -1.481000000
H    -1.801000000    -0.329000000    -2.736000000
C     0.258000000     0.282000000    -1.224000000
H     0.433000000     0.337000000    -2.295000000
C     1.181000000     0.740000000    -0.326000000
H     1.976000000     1.417000000    -0.627000000
C     1.102000000     0.420000000     1.047000000
C     2.129000000     1.037000000     1.942000000
O     2.353000000     2.236000000     1.766000000
O     2.263000000     0.550000000     3.001000000
O    -0.499000000    -3.562000000     3.366000000
H     0.092000000    -2.861000000     3.090000000
H    -1.127000000    -3.643000000     2.648000000
O     2.024000000    -2.244000000     3.167000000
H     2.697000000    -2.617000000     2.598000000
H     2.099000000    -1.298000000     3.040000000
O    -6.085000000    -2.469000000     0.170000000
H    -6.802000000    -2.971000000     0.557000000
H    -5.641000000    -2.070000000     0.918000000
O    -0.854000000    -2.079000000    -6.964000000
H    -0.303000000    -2.650000000    -6.428000000
H    -0.604000000    -1.192000000    -6.704000000
O     3.399000000    -1.301000000    -2.132000000
H     3.502000000    -1.917000000    -2.857000000
H     3.350000000    -0.442000000    -2.553000000
O    -4.197000000    -1.251000000     1.835000000
H    -3.960000000    -0.884000000     2.687000000
H    -4.055000000    -0.533000000     1.218000000
O    -2.071000000     2.472000000    -5.762000000
H    -1.894000000     3.040000000    -6.511000000
H    -2.939000000     2.108000000    -5.936000000
O     3.732000000     0.127000000     6.533000000
H     3.257000000     0.927000000     6.308000000
H     4.425000000     0.419000000     7.126000000
O     6.296000000     2.229000000     4.274000000
H     5.792000000     1.517000000     3.880000000
H     5.833000000     3.024000000     4.011000000
O     0.313000000     0.630000000    -6.735000000
H     0.768000000     1.400000000    -7.075000000
H    -0.612000000     0.799000000    -6.915000000
O     0.589000000    -0.421000000     6.122000000
H     1.103000000    -1.145000000     6.479000000
H     1.109000000    -0.099000000     5.386000000
O    -0.693000000     1.462000000     7.505000000
H    -0.314000000     0.698000000     7.071000000
H    -0.208000000     1.535000000     8.327000000
O     5.993000000     1.630000000    -0.027000000
H     6.700000000     1.509000000     0.607000000
H     6.235000000     1.072000000    -0.765000000
O    -1.629000000    -4.739000000    -0.850000000
H    -1.496000000    -4.066000000    -0.183000000
H    -0.886000000    -5.333000000    -0.741000000
O    -0.361000000     3.214000000    -1.044000000
H     0.178000000     3.143000000    -1.831000000
H    -0.047000000     2.512000000    -0.474000000
O     0.512000000     2.853000000    -3.928000000
H     0.145000000     2.695000000    -4.798000000
H     0.744000000     3.782000000    -3.931000000
O    -2.814000000    -5.601000000    -3.119000000
H    -3.738000000    -5.730000000    -2.905000000
H    -2.432000000    -5.237000000    -2.321000000
O    -1.419000000     2.221000000     4.844000000
H    -1.353000000     3.173000000     4.771000000
H    -1.374000000     2.049000000     5.785000000
O     5.158000000    -2.863000000     2.226000000
H     4.729000000    -2.061000000     1.927000000
H     6.094000000    -2.668000000     2.171000000
O     2.368000000     0.419000000    -4.145000000
H     1.759000000     1.096000000    -3.852000000
H     2.706000000     0.746000000    -4.979000000
O    -3.197000000     0.290000000     3.854000000
H    -3.729000000     0.452000000     4.633000000
H    -2.432000000     0.855000000     3.964000000
O     1.414000000    -3.591000000    -1.007000000
H     1.982000000    -3.643000000    -1.776000000
H     1.091000000    -2.689000000    -1.009000000
O    -2.585000000     2.550000000    -2.399000000
H    -2.157000000     2.145000000    -3.154000000
H    -1.892000000     2.626000000    -1.744000000
O    -5.303000000     1.565000000    -1.321000000
H    -4.535000000     1.669000000    -1.882000000
H    -4.958000000     1.615000000    -0.429000000
O     0.607000000     4.077000000     2.512000000
H     1.225000000     3.389000000     2.267000000
H     1.128000000     4.699000000     3.019000000
O    -1.459000000    -4.300000000     5.836000000
H    -1.891000000    -5.154000000     5.856000000
H    -1.263000000    -4.153000000     4.910000000
O    -2.809000000    -3.458000000     1.260000000
H    -3.384000000    -4.160000000     1.566000000
H    -3.218000000    -2.655000000     1.583000000
O     0.083000000    -2.758000000    -4.110000000
H     0.151000000    -1.844000000    -3.836000000
H     0.921000000    -3.146000000    -3.859000000
O     2.319000000    -2.402000000     6.454000000
H     2.843000000    -3.153000000     6.173000000
H     2.930000000    -1.665000000     6.438000000
O     6.718000000     4.627000000     2.259000000
H     5.931000000     4.409000000     1.759000000
H     7.370000000     3.989000000     1.969000000
O     3.169000000     6.180000000     2.927000000
H     3.790000000     5.477000000     3.120000000
H     3.268000000     6.336000000     1.988000000
O    -1.095000000    -4.965000000    -5.271000000
H    -1.736000000    -5.457000000    -4.757000000
H    -0.885000000    -4.205000000    -4.728000000
O    -6.528000000    -0.998000000    -4.766000000
H    -6.438000000    -1.134000000    -3.823000000
H    -5.955000000    -1.658000000    -5.159000000
O    -5.019000000    -4.097000000     3.496000000
H    -5.845000000    -3.985000000     3.967000000
H    -4.519000000    -3.306000000     3.698000000
O     2.140000000     2.267000000     5.066000000
H     1.236000000     2.270000000     5.380000000
H     2.106000000     1.783000000     4.241000000
O    -6.456000000    -1.148000000    -2.026000000
H    -6.220000000    -0.235000000    -1.866000000
H    -6.051000000    -1.631000000    -1.306000000
O     1.702000000    -5.234000000     3.309000000
H     1.138000000    -4.559000000     3.686000000
H     2.560000000    -5.078000000     3.703000000
O     4.044000000     5.996000000    -1.166000000
H     3.478000000     6.634000000    -0.732000000
H     4.058000000     5.245000000    -0.573000000
O     4.238000000    -0.656000000     0.549000000
H     4.912000000     0.024000000     0.543000000
H     3.777000000    -0.543000000    -0.282000000
O    -4.929000000    -5.252000000    -1.316000000
H    -5.212000000    -4.347000000    -1.444000000
H    -4.166000000    -5.186000000    -0.742000000
O    -1.961000000     4.163000000     1.780000000
H    -2.064000000     4.881000000     1.156000000
H    -1.055000000     4.235000000     2.080000000
O    -1.844000000    -1.750000000     6.608000000
H    -1.482000000    -2.612000000     6.405000000
H    -1.269000000    -1.135000000     6.152000000
O     4.719000000    -0.314000000     3.972000000
H     3.919000000    -0.312000000     3.447000000
H     4.420000000    -0.498000000     4.863000000
O    -3.570000000    -2.363000000    -5.668000000
H    -2.614000000    -2.307000000    -5.671000000
H    -3.836000000    -1.954000000    -6.491000000
O    -3.566000000     4.751000000    -1.319000000
H    -3.519000000     3.901000000    -1.756000000
H    -4.498000000     4.876000000    -1.139000000
O    -3.473000000     1.789000000     1.417000000
H    -3.167000000     2.671000000     1.629000000
H    -3.040000000     1.224000000     2.057000000
O     4.100000000     3.411000000     3.455000000
H     3.628000000     3.076000000     4.217000000
H     3.779000000     2.884000000     2.723000000
O     4.296000000     3.842000000     0.595000000
H     4.700000000     3.147000000     0.075000000
H     3.504000000     3.442000000     0.954000000
