161
-3061.24191
C    -1.014000000    -0.474000000     0.924000000
H    -1.838000000    -0.880000000     1.506000000
C    -0.836000000    -0.955000000    -0.388000000
H    -1.485000000    -1.772000000    -0.690000000
C     0.216000000    -0.433000000    -1.138000000
C     0.388000000    -0.858000000    -2.565000000
H     1.347000000    -1.345000000    -2.755000000
H    -0.478000000    -1.471000000    -2.827000000
H     0.317000000    -0.022000000    -3.264000000
C     1.095000000     0.505000000    -0.627000000
H     1.799000000     0.920000000    -1.343000000
C     0.799000000     1.032000000     0.630000000
H     1.394000000     1.856000000     1.015000000
C    -0.186000000     0.474000000     1.498000000
C    -0.438000000     0.972000000     2.985000000
O     0.472000000     1.502000000     3.573000000
O    -1.552000000     0.944000000     3.464000000
O     0.393000000     2.883000000    -4.703000000
H    -0.204000000     3.067000000    -3.978000000
H    -0.032000000     2.178000000    -5.191000000
O    -4.801000000    -1.707000000    -1.441000000
H    -4.549000000    -0.883000000    -1.023000000
H    -5.296000000    -2.175000000    -0.769000000
O     2.809000000    -1.289000000    -5.144000000
H     1.927000000    -1.267000000    -5.516000000
H     3.384000000    -1.070000000    -5.877000000
O     2.930000000    -4.267000000    -5.969000000
H     2.528000000    -3.464000000    -5.637000000
H     2.228000000    -4.917000000    -5.939000000
O     3.797000000    -0.353000000    -2.991000000
H     3.476000000    -0.838000000    -3.751000000
H     3.797000000     0.562000000    -3.274000000
O    -3.465000000    -1.463000000    -4.262000000
H    -2.615000000    -1.811000000    -4.531000000
H    -3.677000000    -1.942000000    -3.460000000
O    -2.913000000     2.626000000     2.015000000
H    -3.864000000     2.522000000     1.989000000
H    -2.592000000     1.804000000     2.386000000
O     3.216000000     6.367000000     0.601000000
H     3.327000000     6.503000000    -0.340000000
H     2.331000000     6.683000000     0.786000000
O    -1.711000000    -0.850000000     5.501000000
H    -1.705000000    -0.154000000     4.845000000
H    -2.353000000    -0.561000000     6.150000000
O    -2.430000000     2.984000000     5.119000000
H    -1.993000000     2.330000000     4.573000000
H    -2.497000000     3.757000000     4.560000000
O    -2.755000000     5.844000000     3.554000000
H    -3.429000000     5.803000000     2.876000000
H    -1.982000000     5.453000000     3.148000000
O    -1.855000000     2.177000000    -0.692000000
H    -2.463000000     2.222000000     0.045000000
H    -1.126000000     1.646000000    -0.370000000
O    -1.058000000    -3.261000000    -5.009000000
H    -1.086000000    -3.844000000    -5.768000000
H    -0.827000000    -3.833000000    -4.276000000
O     4.185000000     4.342000000     2.252000000
H     3.474000000     4.376000000     2.892000000
H     3.984000000     5.044000000     1.633000000
O    -0.188000000    -3.808000000     5.004000000
H     0.482000000    -3.562000000     4.365000000
H    -0.782000000    -3.058000000     5.028000000
O     2.743000000     0.113000000     3.535000000
H     2.137000000     0.844000000     3.417000000
H     3.053000000     0.201000000     4.436000000
O     0.037000000     4.848000000     6.454000000
H     0.233000000     5.494000000     5.776000000
H    -0.674000000     4.323000000     6.085000000
O     3.475000000     2.963000000    -0.176000000
H     2.599000000     3.288000000    -0.386000000
H     3.623000000     3.241000000     0.727000000
O     2.634000000     4.039000000     4.771000000
H     3.338000000     4.443000000     5.280000000
H     1.859000000     4.561000000     4.978000000
O     4.647000000     0.305000000    -0.245000000
H     4.065000000     1.049000000    -0.088000000
H     4.503000000     0.079000000    -1.164000000
O    -2.649000000     1.387000000    -3.034000000
H    -2.284000000     1.710000000    -2.210000000
H    -2.946000000     0.500000000    -2.832000000
O    -0.890000000    -5.805000000     2.012000000
H    -1.198000000    -5.001000000     1.593000000
H    -1.667000000    -6.166000000     2.438000000
O     0.490000000    -3.548000000     0.223000000
H     1.419000000    -3.365000000     0.359000000
H     0.114000000    -2.704000000    -0.028000000
O     4.637000000    -3.072000000    -1.666000000
H     4.235000000    -3.931000000    -1.536000000
H     4.409000000    -2.834000000    -2.565000000
O    -0.737000000     4.111000000     2.646000000
H    -1.232000000     3.433000000     2.185000000
H    -0.103000000     3.626000000     3.175000000
O    -1.080000000     3.961000000    -2.608000000
H    -1.433000000     3.419000000    -1.902000000
H    -1.410000000     4.841000000    -2.422000000
O    -4.730000000     1.670000000     4.844000000
H    -4.557000000     1.096000000     4.098000000
H    -3.995000000     2.283000000     4.851000000
O     1.026000000     4.102000000    -0.682000000
H     1.061000000     5.058000000    -0.642000000
H     0.350000000     3.915000000    -1.334000000
O     1.140000000    -2.206000000     3.028000000
H     0.509000000    -2.436000000     2.346000000
H     1.622000000    -1.462000000     2.668000000
O     0.634000000    -1.110000000     7.159000000
H     1.473000000    -1.438000000     6.836000000
H     0.133000000    -0.912000000     6.367000000
O     3.205000000     2.118000000    -4.316000000
H     3.801000000     2.864000000    -4.244000000
H     2.333000000     2.497000000    -4.207000000
O    -4.689000000    -0.345000000     2.896000000
H    -5.522000000    -0.744000000     2.648000000
H    -4.176000000    -1.067000000     3.260000000
O     5.443000000     3.000000000    -2.531000000
H     4.912000000     2.847000000    -1.750000000
H     6.335000000     2.779000000    -2.262000000
O    -2.142000000     2.969000000     8.066000000
H    -2.124000000     2.781000000     7.128000000
H    -1.328000000     3.444000000     8.231000000
O    -3.053000000    -3.897000000    -2.435000000
H    -3.679000000    -4.215000000    -3.085000000
H    -3.508000000    -3.179000000    -1.995000000
O     0.501000000     6.593000000     1.458000000
H     0.080000000     5.742000000     1.582000000
H    -0.171000000     7.133000000     1.042000000
O     0.419000000    -1.242000000    -6.194000000
H     0.050000000    -1.779000000    -5.493000000
H    -0.216000000    -0.536000000    -6.315000000
O     0.627000000     6.294000000     4.112000000
H     0.788000000     7.108000000     4.588000000
H     0.860000000     6.496000000     3.206000000
O     5.169000000    -1.168000000     3.145000000
H     5.695000000    -0.378000000     3.021000000
H     4.277000000    -0.845000000     3.274000000
O     1.481000000     1.585000000     5.957000000
H     1.479000000     2.533000000     6.086000000
H     1.081000000     1.458000000     5.097000000
O    -3.495000000    -4.664000000     1.448000000
H    -4.252000000    -4.204000000     1.087000000
H    -3.818000000    -5.544000000     1.641000000
O    -0.348000000    -4.709000000    -2.324000000
H     0.075000000    -4.542000000    -1.482000000
H    -1.239000000    -4.375000000    -2.214000000
O     2.968000000    -2.076000000     0.420000000
H     3.500000000    -2.202000000    -0.366000000
H     3.056000000    -1.144000000     0.622000000
O    -4.384000000     0.550000000     0.284000000
H    -4.993000000     1.288000000     0.258000000
H    -4.257000000     0.377000000     1.217000000
O    -3.418000000    -2.703000000     3.579000000
H    -3.290000000    -3.259000000     2.810000000
H    -3.221000000    -3.273000000     4.322000000
O    -1.324000000     0.762000000    -5.804000000
H    -1.964000000     0.394000000    -6.414000000
H    -1.837000000     0.990000000    -5.028000000
O     0.748000000     4.289000000    -6.944000000
H     0.766000000     3.516000000    -6.380000000
H     1.448000000     4.139000000    -7.579000000
O     4.931000000     1.805000000     5.656000000
H     4.128000000     2.270000000     5.422000000
H     4.641000000     1.102000000     6.237000000
