161
-3019.34543
C    -0.475000000     1.125000000    -0.867000000
H    -0.865000000     1.729000000    -1.682000000
C     0.668000000     0.409000000    -1.132000000
H     1.123000000     0.419000000    -2.120000000
C     1.012000000    -0.651000000    -0.223000000
C     2.076000000    -1.704000000    -0.535000000
H     2.504000000    -2.045000000     0.409000000
H     1.674000000    -2.609000000    -0.995000000
H     2.884000000    -1.260000000    -1.120000000
C     0.339000000    -0.797000000     0.993000000
H     0.638000000    -1.627000000     1.629000000
C    -0.775000000     0.033000000     1.314000000
H    -1.318000000    -0.060000000     2.251000000
C    -1.159000000     0.977000000     0.315000000
C    -2.432000000     1.807000000     0.528000000
O    -2.713000000     2.211000000     1.638000000
O    -3.178000000     2.036000000    -0.398000000
O    -6.995000000     4.326000000    -2.374000000
H    -6.425000000     4.415000000    -1.610000000
H    -6.393000000     4.196000000    -3.107000000
O    -0.087000000    -6.113000000    -1.621000000
H     0.851000000    -6.053000000    -1.444000000
H    -0.493000000    -6.146000000    -0.754000000
O     1.942000000    -3.379000000    -4.046000000
H     2.557000000    -3.739000000    -3.407000000
H     2.199000000    -2.461000000    -4.135000000
O    -6.219000000     4.808000000     2.781000000
H    -5.341000000     4.455000000     2.637000000
H    -6.287000000     4.900000000     3.731000000
O    -3.225000000     2.454000000    -2.836000000
H    -3.350000000     1.593000000    -3.234000000
H    -3.120000000     2.273000000    -1.902000000
O    -1.466000000    -0.692000000     7.039000000
H    -0.995000000    -0.513000000     6.224000000
H    -1.023000000    -1.456000000     7.409000000
O     5.587000000    -1.879000000    -3.694000000
H     6.328000000    -1.495000000    -4.163000000
H     5.667000000    -2.820000000    -3.849000000
O     5.649000000    -2.838000000    -1.057000000
H     5.640000000    -2.148000000    -1.720000000
H     6.565000000    -3.111000000    -1.007000000
O    -1.718000000    -3.252000000     0.810000000
H    -2.226000000    -2.442000000     0.755000000
H    -1.178000000    -3.143000000     1.593000000
O    -1.906000000     6.414000000     0.683000000
H    -1.314000000     7.046000000     1.093000000
H    -1.868000000     6.621000000    -0.250000000
O     2.743000000     4.788000000     0.726000000
H     3.584000000     5.226000000     0.859000000
H     2.964000000     3.858000000     0.666000000
O     1.579000000     3.761000000    -3.140000000
H     1.485000000     4.540000000    -2.591000000
H     2.110000000     3.162000000    -2.616000000
O    -0.853000000     3.416000000    -4.249000000
H    -0.077000000     3.454000000    -3.690000000
H    -1.570000000     3.212000000    -3.648000000
O     1.719000000     2.131000000     4.603000000
H     1.965000000     3.003000000     4.293000000
H     2.497000000     1.811000000     5.059000000
O     4.221000000    -0.367000000     1.632000000
H     5.027000000     0.066000000     1.352000000
H     3.520000000     0.209000000     1.326000000
O     6.281000000    -4.566000000     3.474000000
H     5.986000000    -5.476000000     3.435000000
H     5.713000000    -4.103000000     2.858000000
O    -4.894000000     4.065000000    -0.286000000
H    -4.519000000     4.498000000     0.481000000
H    -4.381000000     3.263000000    -0.383000000
O     2.486000000     1.726000000     2.027000000
H     2.528000000     1.912000000     2.965000000
H     1.605000000     1.377000000     1.892000000
O     4.684000000    -3.019000000     1.668000000
H     4.527000000    -2.110000000     1.923000000
H     5.060000000    -2.960000000     0.789000000
O     4.121000000    -1.672000000     4.497000000
H     3.997000000    -1.100000000     3.740000000
H     5.063000000    -1.841000000     4.517000000
O     0.090000000    -5.663000000     1.864000000
H     0.966000000    -5.283000000     1.929000000
H    -0.496000000    -4.968000000     2.163000000
O     0.088000000    -0.157000000     4.752000000
H     0.705000000     0.573000000     4.802000000
H     0.622000000    -0.904000000     4.482000000
O    -2.963000000     3.095000000    -5.991000000
H    -3.253000000     2.224000000    -5.722000000
H    -2.501000000     3.440000000    -5.227000000
O     2.893000000    -1.158000000    -5.104000000
H     3.134000000    -1.604000000    -5.916000000
H     3.702000000    -1.139000000    -4.592000000
O     7.039000000     0.844000000     0.622000000
H     7.636000000     1.588000000     0.548000000
H     6.890000000     0.565000000    -0.281000000
O    -4.171000000     2.732000000     4.650000000
H    -3.219000000     2.638000000     4.627000000
H    -4.476000000     2.258000000     3.876000000
O    -0.649000000    -3.230000000     3.384000000
H    -1.361000000    -3.336000000     4.015000000
H     0.096000000    -2.939000000     3.911000000
O    -5.593000000     0.684000000    -0.372000000
H    -5.774000000     0.774000000    -1.307000000
H    -4.717000000     1.053000000    -0.260000000
O    -3.853000000    -1.614000000     1.050000000
H    -4.619000000    -2.074000000     0.706000000
H    -4.206000000    -0.810000000     1.430000000
O     3.912000000    -4.796000000    -2.043000000
H     4.376000000    -4.069000000    -1.628000000
H     4.120000000    -5.555000000    -1.498000000
O     4.042000000     2.714000000    -2.081000000
H     4.897000000     3.141000000    -2.132000000
H     3.918000000     2.534000000    -1.149000000
O     1.241000000     1.024000000    -6.332000000
H     0.376000000     0.650000000    -6.165000000
H     1.821000000     0.569000000    -5.722000000
O    -1.430000000     2.122000000     4.354000000
H    -1.268000000     2.550000000     3.514000000
H    -0.834000000     1.373000000     4.361000000
O    -7.627000000    -0.345000000     1.268000000
H    -7.220000000    -1.053000000     1.768000000
H    -7.007000000    -0.162000000     0.563000000
O    -2.839000000    -4.201000000    -3.222000000
H    -2.188000000    -3.534000000    -3.004000000
H    -2.503000000    -4.614000000    -4.018000000
O    -3.677000000     0.280000000    -4.804000000
H    -2.787000000     0.117000000    -5.116000000
H    -4.241000000    -0.073000000    -5.491000000
O    -4.376000000     4.810000000    -3.533000000
H    -4.226000000     5.324000000    -2.740000000
H    -4.112000000     3.921000000    -3.296000000
O    -5.104000000     1.277000000     2.576000000
H    -5.827000000     1.582000000     2.028000000
H    -4.322000000     1.426000000     2.044000000
O    -0.673000000    -2.816000000    -2.431000000
H     0.198000000    -3.128000000    -2.679000000
H    -0.789000000    -3.121000000    -1.531000000
O     2.614000000    -7.068000000    -0.608000000
H     2.431000000    -7.647000000     0.132000000
H     2.571000000    -6.186000000    -0.237000000
O     2.936000000    -5.144000000     1.498000000
H     3.364000000    -5.765000000     2.087000000
H     3.557000000    -4.420000000     1.421000000
O     1.695000000    -2.765000000     4.548000000
H     2.618000000    -2.587000000     4.370000000
H     1.672000000    -3.009000000     5.474000000
O    -2.673000000    -3.101000000     5.217000000
H    -3.532000000    -3.041000000     4.799000000
H    -2.703000000    -2.454000000     5.921000000
O    -5.753000000    -0.141000000     4.855000000
H    -5.312000000     0.123000000     4.048000000
H    -5.057000000    -0.515000000     5.397000000
O    -3.674000000     4.663000000     2.081000000
H    -3.369000000     3.757000000     2.131000000
H    -2.906000000     5.159000000     1.795000000
O     4.521000000     2.551000000     0.661000000
H     5.323000000     2.692000000     1.165000000
H     3.967000000     2.021000000     1.234000000
O    -0.885000000    -0.523000000    -4.954000000
H    -0.581000000    -1.024000000    -4.197000000
H    -0.803000000    -1.128000000    -5.691000000
O     3.240000000     2.375000000    -4.794000000
H     3.181000000     2.473000000    -3.844000000
H     2.367000000     2.604000000    -5.113000000
