161
-3061.52350
C    -1.120000000     0.069000000    -1.046000000
H    -1.837000000     0.261000000    -1.840000000
C     0.166000000    -0.448000000    -1.266000000
H     0.466000000    -0.965000000    -2.174000000
C     1.108000000    -0.482000000    -0.250000000
C     2.445000000    -1.066000000    -0.346000000
H     2.801000000    -0.616000000    -1.275000000
H     3.192000000    -0.778000000     0.396000000
H     2.390000000    -2.151000000    -0.459000000
C     0.779000000    -0.099000000     1.064000000
H     1.433000000    -0.187000000     1.928000000
C    -0.568000000     0.369000000     1.333000000
H    -0.798000000     0.726000000     2.334000000
C    -1.441000000     0.496000000     0.268000000
C    -2.698000000     1.315000000     0.440000000
O    -2.786000000     2.139000000     1.366000000
O    -3.538000000     1.413000000    -0.475000000
O    -4.837000000     1.961000000    -2.823000000
H    -4.315000000     1.494000000    -2.169000000
H    -5.693000000     2.075000000    -2.409000000
O     2.385000000    -0.745000000     4.508000000
H     1.459000000    -0.504000000     4.507000000
H     2.845000000     0.071000000     4.705000000
O    -7.537000000     1.323000000     2.716000000
H    -8.293000000     1.898000000     2.595000000
H    -7.352000000     0.982000000     1.841000000
O    -2.346000000    -4.136000000    -4.039000000
H    -2.444000000    -3.283000000    -4.463000000
H    -3.180000000    -4.278000000    -3.591000000
O     2.909000000    -4.618000000    -2.040000000
H     2.053000000    -4.378000000    -2.394000000
H     2.744000000    -4.795000000    -1.114000000
O     7.143000000    -3.066000000     2.782000000
H     7.317000000    -2.131000000     2.886000000
H     6.701000000    -3.135000000     1.936000000
O    -1.345000000     4.170000000     0.671000000
H    -1.857000000     3.399000000     0.915000000
H    -0.444000000     3.941000000     0.899000000
O    -2.979000000     0.454000000    -4.691000000
H    -3.323000000    -0.439000000    -4.708000000
H    -3.638000000     0.955000000    -4.211000000
O     3.576000000    -3.176000000     5.415000000
H     3.170000000    -3.427000000     6.245000000
H     3.104000000    -2.388000000     5.147000000
O    -0.262000000     0.107000000     5.072000000
H    -0.067000000     0.993000000     5.379000000
H    -1.099000000     0.191000000     4.614000000
O     6.432000000    -0.506000000    -0.536000000
H     7.259000000    -0.109000000    -0.808000000
H     5.801000000     0.213000000    -0.563000000
O     2.788000000    -1.047000000    -5.035000000
H     2.337000000    -1.872000000    -5.212000000
H     3.475000000    -1.278000000    -4.410000000
O    -0.330000000    -5.935000000     0.341000000
H     0.434000000    -5.358000000     0.339000000
H    -0.773000000    -5.748000000    -0.486000000
O    -2.465000000     4.891000000     3.418000000
H    -2.596000000     4.069000000     2.946000000
H    -1.552000000     5.123000000     3.248000000
O    -5.716000000    -0.709000000     3.023000000
H    -6.246000000     0.069000000     3.199000000
H    -6.022000000    -1.356000000     3.658000000
O    -7.035000000    -1.896000000    -0.254000000
H    -6.167000000    -1.609000000     0.030000000
H    -7.219000000    -2.667000000     0.282000000
O    -5.668000000     4.847000000     4.800000000
H    -5.466000000     4.009000000     4.384000000
H    -5.158000000     5.489000000     4.305000000
O    -3.224000000    -3.547000000     0.203000000
H    -2.579000000    -3.298000000     0.865000000
H    -3.703000000    -2.739000000     0.019000000
O     4.182000000     1.662000000     4.620000000
H     4.257000000     2.415000000     5.206000000
H     4.583000000     1.954000000     3.801000000
O     5.172000000    -5.452000000    -0.608000000
H     4.325000000    -5.344000000    -1.041000000
H     5.309000000    -4.629000000    -0.141000000
O    -2.752000000    -2.512000000     4.143000000
H    -2.156000000    -2.292000000     3.428000000
H    -3.458000000    -3.005000000     3.725000000
O    -0.789000000     3.936000000    -4.761000000
H    -1.054000000     4.045000000    -3.848000000
H    -1.449000000     4.417000000    -5.261000000
O     5.502000000    -2.801000000     0.705000000
H     5.948000000    -2.087000000     0.249000000
H     4.584000000    -2.529000000     0.734000000
O     0.405000000    -4.223000000    -3.021000000
H    -0.277000000    -4.450000000    -2.388000000
H     0.187000000    -3.333000000    -3.298000000
O     2.316000000    -4.715000000     0.597000000
H     2.021000000    -4.307000000     1.411000000
H     2.603000000    -5.590000000     0.857000000
O    -2.060000000     4.014000000    -2.297000000
H    -3.010000000     3.900000000    -2.295000000
H    -1.759000000     3.530000000    -1.528000000
O    -3.038000000    -0.918000000     6.571000000
H    -2.608000000    -1.709000000     6.896000000
H    -2.710000000    -0.816000000     5.678000000
O     1.330000000     3.210000000     1.325000000
H     1.973000000     2.537000000     1.550000000
H     1.809000000     4.035000000     1.406000000
O    -4.979000000     2.748000000     2.987000000
H    -4.265000000     2.669000000     2.354000000
H    -5.736000000     2.367000000     2.543000000
O     4.369000000     2.285000000     1.353000000
H     4.184000000     1.925000000     0.485000000
H     5.322000000     2.372000000     1.377000000
O    -0.285000000     0.997000000    -4.660000000
H    -1.238000000     0.908000000    -4.647000000
H    -0.132000000     1.942000000    -4.624000000
O    -0.534000000     2.956000000     5.731000000
H    -0.181000000     3.809000000     5.480000000
H    -1.484000000     3.067000000     5.683000000
O    -4.457000000     4.121000000    -0.390000000
H    -4.236000000     3.220000000    -0.154000000
H    -3.702000000     4.635000000    -0.104000000
O    -5.274000000     3.773000000    -4.673000000
H    -5.276000000     3.575000000    -5.609000000
H    -5.117000000     2.929000000    -4.250000000
O    -2.901000000     6.538000000     0.700000000
H    -2.470000000     7.353000000     0.446000000
H    -2.182000000     5.932000000     0.880000000
O    -0.339000000    -1.912000000    -4.658000000
H    -0.163000000    -0.983000000    -4.510000000
H    -0.531000000    -1.973000000    -5.594000000
O    -4.601000000    -1.038000000     0.349000000
H    -4.876000000    -0.944000000     1.260000000
H    -4.466000000    -0.141000000     0.045000000
O    -6.132000000     1.538000000     0.351000000
H    -5.199000000     1.575000000     0.141000000
H    -6.570000000     1.553000000    -0.499000000
O     1.320000000     3.117000000    -1.659000000
H     1.763000000     2.379000000    -2.076000000
H     1.412000000     2.953000000    -0.720000000
O    -0.934000000    -2.829000000     1.762000000
H    -0.108000000    -3.114000000     2.153000000
H    -0.718000000    -2.010000000     1.315000000
O    -3.094000000     0.536000000     4.188000000
H    -3.155000000     1.426000000     3.841000000
H    -3.878000000     0.096000000     3.859000000
O     1.231000000    -3.042000000     3.155000000
H     0.647000000    -3.358000000     3.844000000
H     1.931000000    -2.587000000     3.623000000
O    -7.523000000     1.950000000    -2.232000000
H    -8.048000000     2.730000000    -2.413000000
H    -8.166000000     1.248000000    -2.129000000
O     4.782000000     1.666000000    -1.453000000
H     5.113000000     2.309000000    -2.080000000
H     4.053000000     1.242000000    -1.906000000
O     2.427000000     1.161000000    -3.281000000
H     1.533000000     0.840000000    -3.402000000
H     2.933000000     0.727000000    -3.968000000
O     4.408000000    -2.286000000    -3.282000000
H     3.694000000    -2.780000000    -2.881000000
H     5.202000000    -2.740000000    -2.998000000
O    -6.748000000     5.466000000     0.346000000
H    -7.292000000     5.365000000    -0.435000000
H    -6.021000000     4.858000000     0.212000000
O     5.494000000     0.096000000    -4.998000000
H     5.483000000    -0.547000000    -4.289000000
H     6.167000000    -0.222000000    -5.599000000
