161
-3056.33750
C    -1.166000000    -0.405000000    -0.736000000
H    -1.940000000    -0.903000000    -1.315000000
C     0.141000000    -0.904000000    -0.965000000
H     0.331000000    -1.639000000    -1.743000000
C     1.138000000    -0.426000000    -0.183000000
C     2.553000000    -0.874000000    -0.530000000
H     3.031000000     0.028000000    -0.917000000
H     3.012000000    -1.304000000     0.363000000
H     2.595000000    -1.739000000    -1.196000000
C     0.917000000     0.539000000     0.759000000
H     1.749000000     0.845000000     1.387000000
C    -0.437000000     0.916000000     1.033000000
H    -0.698000000     1.498000000     1.914000000
C    -1.479000000     0.555000000     0.233000000
C    -2.859000000     1.121000000     0.532000000
O    -3.071000000     1.652000000     1.641000000
O    -3.823000000     1.046000000    -0.271000000
O     6.940000000    -2.497000000     3.341000000
H     6.535000000    -2.494000000     2.473000000
H     6.283000000    -2.900000000     3.910000000
O    -5.397000000    -0.520000000    -1.985000000
H    -5.009000000     0.203000000    -1.492000000
H    -5.060000000    -1.308000000    -1.558000000
O     4.225000000     0.223000000     2.758000000
H     3.513000000     0.715000000     3.166000000
H     4.770000000     0.891000000     2.342000000
O    -4.380000000     0.895000000     5.857000000
H    -5.074000000     1.387000000     5.417000000
H    -3.615000000     1.001000000     5.291000000
O    -1.060000000    -4.860000000    -1.940000000
H    -1.501000000    -4.263000000    -2.545000000
H    -1.199000000    -4.472000000    -1.076000000
O     5.590000000    -4.892000000     0.340000000
H     5.208000000    -4.908000000    -0.538000000
H     5.773000000    -3.967000000     0.505000000
O    -0.464000000     4.675000000     2.448000000
H    -0.530000000     4.321000000     1.561000000
H     0.027000000     5.490000000     2.345000000
O     6.116000000    -3.438000000    -4.942000000
H     6.919000000    -3.324000000    -4.433000000
H     5.474000000    -2.878000000    -4.504000000
O    -7.870000000    -1.280000000    -0.572000000
H    -7.182000000    -1.276000000    -1.239000000
H    -7.397000000    -1.240000000     0.259000000
O    -5.278000000    -4.025000000    -2.929000000
H    -4.857000000    -4.883000000    -2.872000000
H    -5.056000000    -3.594000000    -2.104000000
O     1.808000000    -1.186000000     3.857000000
H     2.491000000    -0.947000000     3.230000000
H     1.771000000    -0.447000000     4.465000000
O     5.592000000     0.561000000    -0.320000000
H     5.292000000     0.763000000    -1.206000000
H     5.345000000     1.328000000     0.198000000
O     5.089000000     1.328000000    -2.756000000
H     5.686000000     0.854000000    -3.335000000
H     5.480000000     2.198000000    -2.670000000
O    -5.983000000     5.527000000    -1.260000000
H    -5.603000000     5.860000000    -0.447000000
H    -5.899000000     4.576000000    -1.191000000
O     2.552000000     4.145000000     2.627000000
H     2.301000000     3.642000000     1.853000000
H     2.358000000     5.053000000     2.397000000
O     2.941000000     2.055000000     4.342000000
H     2.797000000     2.932000000     3.986000000
H     3.651000000     2.168000000     4.975000000
O     0.994000000    -3.737000000    -4.190000000
H     0.995000000    -3.240000000    -5.008000000
H     0.172000000    -3.495000000    -3.763000000
O    -2.961000000    -2.309000000     2.637000000
H    -2.331000000    -1.995000000     3.286000000
H    -2.825000000    -3.256000000     2.610000000
O    -5.459000000     5.573000000     2.865000000
H    -4.793000000     4.953000000     2.570000000
H    -5.254000000     5.726000000     3.787000000
O    -1.249000000    -3.440000000     0.462000000
H    -0.762000000    -2.731000000     0.042000000
H    -1.959000000    -2.998000000     0.928000000
O    -1.072000000    -1.147000000     4.296000000
H    -0.935000000    -1.407000000     5.207000000
H    -0.193000000    -0.962000000     3.966000000
O    -1.135000000     4.550000000    -0.242000000
H    -1.389000000     5.324000000    -0.745000000
H    -0.321000000     4.255000000    -0.650000000
O     4.254000000    -1.963000000    -3.579000000
H     4.189000000    -1.864000000    -2.629000000
H     3.354000000    -1.870000000    -3.891000000
O    -6.126000000     2.971000000     4.554000000
H    -6.857000000     3.509000000     4.249000000
H    -5.668000000     3.526000000     5.186000000
O    -2.679000000     2.249000000    -2.343000000
H    -3.225000000     1.816000000    -1.687000000
H    -2.165000000     2.885000000    -1.845000000
O     1.504000000     3.448000000    -1.074000000
H     2.340000000     3.878000000    -0.897000000
H     1.745000000     2.603000000    -1.456000000
O     5.905000000    -2.065000000     0.894000000
H     6.332000000    -1.261000000     0.601000000
H     5.101000000    -1.768000000     1.320000000
O     3.422000000    -4.213000000    -1.794000000
H     3.080000000    -5.061000000    -1.511000000
H     2.848000000    -3.951000000    -2.513000000
O    -5.764000000     0.164000000    -4.652000000
H    -5.758000000     0.932000000    -4.081000000
H    -5.549000000    -0.568000000    -4.074000000
O    -1.889000000     0.022000000    -4.133000000
H    -2.412000000     0.127000000    -4.927000000
H    -2.082000000     0.803000000    -3.614000000
O    -5.825000000     2.580000000    -0.581000000
H    -6.125000000     2.603000000     0.328000000
H    -5.127000000     1.925000000    -0.585000000
O     4.112000000     4.743000000    -0.087000000
H     4.614000000     4.295000000    -0.767000000
H     4.716000000     5.396000000     0.267000000
O    -2.355000000     1.199000000     4.169000000
H    -1.959000000     0.349000000     3.973000000
H    -2.603000000     1.551000000     3.315000000
O    -1.750000000    -2.571000000    -3.535000000
H    -1.787000000    -1.649000000    -3.788000000
H    -2.544000000    -2.953000000    -3.908000000
O     2.023000000     0.490000000     6.385000000
H     2.283000000     1.016000000     5.629000000
H     2.664000000     0.708000000     7.061000000
O    -3.747000000     4.179000000     1.126000000
H    -3.417000000     3.330000000     1.419000000
H    -3.242000000     4.373000000     0.336000000
O    -6.138000000     2.568000000    -3.460000000
H    -5.867000000     2.444000000    -2.550000000
H    -6.708000000     3.337000000    -3.437000000
O    -0.634000000     3.412000000     4.810000000
H    -0.367000000     3.484000000     3.894000000
H    -1.199000000     2.640000000     4.835000000
O     1.293000000    -4.221000000     1.641000000
H     0.419000000    -3.832000000     1.616000000
H     1.255000000    -4.939000000     1.010000000
O    -3.208000000     5.615000000    -1.926000000
H    -3.080000000     6.095000000    -2.744000000
H    -4.103000000     5.282000000    -1.982000000
O     1.202000000    -0.273000000    -4.382000000
H     1.249000000    -0.888000000    -5.114000000
H     0.347000000    -0.439000000    -3.985000000
O    -6.349000000    -0.985000000     1.505000000
H    -6.915000000    -1.084000000     2.271000000
H    -5.943000000    -0.125000000     1.616000000
O    -5.849000000     1.531000000     2.172000000
H    -4.929000000     1.298000000     2.048000000
H    -5.851000000     2.092000000     2.947000000
O    -4.558000000    -2.702000000    -0.358000000
H    -4.920000000    -2.377000000     0.466000000
H    -4.255000000    -3.587000000    -0.153000000
O     2.246000000     3.938000000    -4.331000000
H     2.383000000     3.082000000    -3.925000000
H     1.329000000     4.145000000    -4.151000000
O     3.928000000    -3.786000000     2.568000000
H     4.477000000    -4.426000000     2.115000000
H     3.058000000    -3.906000000     2.189000000
O     5.066000000     2.638000000     1.849000000
H     5.153000000     2.919000000     2.760000000
H     4.546000000     3.327000000     1.434000000
O     2.542000000     1.791000000    -3.077000000
H     3.440000000     1.471000000    -2.989000000
H     2.089000000     1.102000000    -3.563000000
