161
-3043.01359
C     0.457000000    -0.628000000    -1.224000000
H     0.921000000    -0.975000000    -2.144000000
C     1.253000000    -0.438000000    -0.135000000
H     2.281000000    -0.790000000    -0.109000000
C     0.700000000     0.147000000     0.998000000
C     1.527000000     0.370000000     2.198000000
H     0.906000000     0.529000000     3.082000000
H     2.111000000    -0.550000000     2.265000000
H     2.218000000     1.214000000     2.141000000
C    -0.668000000     0.588000000     1.039000000
H    -1.097000000     1.162000000     1.857000000
C    -1.480000000     0.326000000    -0.095000000
H    -2.515000000     0.658000000    -0.111000000
C    -0.883000000    -0.286000000    -1.236000000
C    -1.687000000    -0.465000000    -2.500000000
O    -2.911000000    -0.367000000    -2.462000000
O    -1.128000000    -0.499000000    -3.565000000
O    -1.907000000    -3.935000000    -2.599000000
H    -2.675000000    -3.590000000    -2.144000000
H    -1.982000000    -4.885000000    -2.510000000
O    -3.224000000     4.994000000    -3.909000000
H    -3.394000000     4.090000000    -3.645000000
H    -2.432000000     5.238000000    -3.430000000
O     6.803000000    -0.744000000     2.971000000
H     7.100000000    -1.654000000     3.006000000
H     5.875000000    -0.787000000     3.202000000
O    -4.402000000    -2.606000000    -3.155000000
H    -4.654000000    -3.324000000    -2.574000000
H    -3.858000000    -2.037000000    -2.611000000
O     3.890000000    -1.215000000     3.974000000
H     3.652000000    -1.717000000     4.754000000
H     4.114000000    -1.879000000     3.322000000
O     6.537000000     3.314000000     2.114000000
H     6.445000000     3.188000000     1.170000000
H     5.981000000     2.637000000     2.501000000
O     3.206000000    -4.350000000     3.929000000
H     3.715000000    -3.901000000     3.254000000
H     3.863000000    -4.748000000     4.500000000
O    -0.420000000    -2.731000000     0.909000000
H    -0.913000000    -2.696000000     1.728000000
H    -0.385000000    -1.822000000     0.611000000
O     5.860000000     2.149000000    -0.785000000
H     5.576000000     1.827000000    -1.640000000
H     5.224000000     2.829000000    -0.561000000
O     5.436000000    -2.801000000    -0.977000000
H     5.220000000    -2.143000000    -1.637000000
H     4.851000000    -3.534000000    -1.169000000
O     0.239000000     5.521000000     3.527000000
H    -0.597000000     5.174000000     3.213000000
H     0.842000000     5.389000000     2.795000000
O     4.625000000     1.612000000     3.386000000
H     4.331000000     1.757000000     4.285000000
H     4.370000000     0.710000000     3.193000000
O    -6.137000000     2.048000000    -1.905000000
H    -6.895000000     1.922000000    -2.475000000
H    -6.510000000     2.323000000    -1.067000000
O    -1.889000000    -2.650000000    -5.066000000
H    -1.687000000    -1.780000000    -4.723000000
H    -1.697000000    -3.244000000    -4.341000000
O    -5.438000000    -1.444000000     2.852000000
H    -5.752000000    -0.941000000     2.101000000
H    -6.057000000    -1.241000000     3.553000000
O    -5.203000000    -0.798000000    -4.946000000
H    -4.441000000    -0.283000000    -4.680000000
H    -5.030000000    -1.676000000    -4.607000000
O     1.203000000    -5.055000000     0.180000000
H     1.205000000    -4.910000000    -0.766000000
H     0.750000000    -4.291000000     0.539000000
O     0.101000000    -1.132000000     6.475000000
H    -0.322000000    -1.407000000     5.661000000
H     0.742000000    -1.820000000     6.656000000
O     0.772000000     1.547000000     8.229000000
H    -0.021000000     2.005000000     8.508000000
H     0.876000000     1.787000000     7.308000000
O     4.964000000    -2.912000000     2.003000000
H     5.684000000    -3.533000000     2.113000000
H     4.797000000    -2.902000000     1.061000000
O    -4.449000000    -3.919000000    -5.422000000
H    -4.420000000    -3.646000000    -4.505000000
H    -3.621000000    -3.611000000    -5.790000000
O    -1.771000000     3.972000000     2.551000000
H    -2.398000000     3.357000000     2.932000000
H    -1.795000000     3.787000000     1.612000000
O     0.877000000    -0.837000000    -5.251000000
H     0.475000000    -1.214000000    -6.033000000
H     0.246000000    -1.005000000    -4.552000000
O     3.616000000    -4.659000000    -1.705000000
H     2.677000000    -4.651000000    -1.895000000
H     3.875000000    -5.573000000    -1.822000000
O    -1.161000000    -2.483000000     4.558000000
H    -1.142000000    -3.416000000     4.342000000
H    -1.841000000    -2.120000000     3.991000000
O     2.940000000    -0.153000000    -3.766000000
H     2.094000000    -0.002000000    -4.186000000
H     3.039000000    -1.106000000    -3.762000000
O    -2.534000000     0.605000000    -5.732000000
H    -1.807000000     0.462000000    -6.338000000
H    -2.141000000     0.519000000    -4.863000000
O     3.089000000     0.166000000    -6.982000000
H     2.787000000    -0.234000000    -6.167000000
H     2.600000000     0.987000000    -7.041000000
O     0.045000000     1.928000000    -3.884000000
H    -0.596000000     2.478000000    -4.335000000
H    -0.473000000     1.217000000    -3.508000000
O     3.446000000     3.860000000    -0.003000000
H     3.481000000     4.057000000     0.932000000
H     2.697000000     3.270000000    -0.096000000
O     0.928000000    -4.472000000    -2.532000000
H     0.014000000    -4.189000000    -2.501000000
H     1.099000000    -4.629000000    -3.460000000
O    -2.130000000     4.250000000     5.815000000
H    -2.078000000     3.863000000     4.941000000
H    -2.427000000     5.147000000     5.663000000
O    -0.500000000     0.301000000    -7.888000000
H    -1.154000000     0.461000000    -8.568000000
H    -0.209000000    -0.598000000    -8.042000000
O     0.704000000     2.908000000    -1.283000000
H     0.993000000     2.005000000    -1.150000000
H     0.556000000     2.975000000    -2.226000000
O    -3.690000000    -0.209000000    -8.033000000
H    -3.842000000     0.030000000    -7.118000000
H    -3.350000000    -1.103000000    -7.994000000
O    -3.663000000     2.165000000    -2.835000000
H    -3.320000000     1.271000000    -2.802000000
H    -4.578000000     2.080000000    -2.570000000
O     3.914000000     1.453000000     6.067000000
H     3.161000000     2.043000000     6.080000000
H     3.549000000     0.595000000     6.285000000
O     2.956000000     3.914000000     2.956000000
H     3.369000000     4.682000000     3.351000000
H     3.549000000     3.191000000     3.159000000
O     4.203000000    -2.680000000    -3.630000000
H     3.963000000    -3.089000000    -4.462000000
H     4.050000000    -3.361000000    -2.975000000
O     1.271000000     2.868000000     5.964000000
H     0.733000000     2.621000000     5.211000000
H     1.280000000     3.825000000     5.948000000
O    -5.007000000    -0.671000000    -0.844000000
H    -5.361000000     0.204000000    -0.685000000
H    -4.147000000    -0.514000000    -1.233000000
O    -0.344000000    -2.442000000    -7.226000000
H     0.053000000    -3.196000000    -7.662000000
H    -0.936000000    -2.824000000    -6.578000000
O    -3.060000000     1.815000000     3.904000000
H    -3.524000000     1.331000000     4.588000000
H    -2.668000000     1.136000000     3.355000000
O    -3.285000000     4.121000000    -0.444000000
H    -2.619000000     4.511000000    -1.009000000
H    -3.385000000     3.228000000    -0.773000000
O     0.097000000    -4.998000000     3.837000000
H    -0.244000000    -5.720000000     3.309000000
H     1.032000000    -4.973000000     3.631000000
O     1.400000000     2.239000000    -6.092000000
H     1.190000000     2.193000000    -5.159000000
H     0.677000000     1.783000000    -6.523000000
O    -2.670000000    -1.455000000     2.755000000
H    -2.482000000    -1.454000000     1.817000000
H    -3.625000000    -1.411000000     2.808000000
O     4.934000000     1.864000000    -3.417000000
H     5.706000000     1.759000000    -3.974000000
H     4.406000000     1.085000000    -3.589000000
