161
-3047.90840
C     0.011000000     1.406000000    -0.225000000
H     0.260000000     2.453000000    -0.377000000
C     1.033000000     0.596000000     0.249000000
H     1.976000000     1.053000000     0.538000000
C     0.877000000    -0.738000000     0.400000000
C     2.074000000    -1.477000000     0.898000000
H     2.825000000    -1.601000000     0.114000000
H     2.540000000    -0.856000000     1.665000000
H     1.745000000    -2.440000000     1.294000000
C    -0.301000000    -1.386000000     0.091000000
H    -0.367000000    -2.470000000     0.145000000
C    -1.360000000    -0.599000000    -0.339000000
H    -2.249000000    -0.986000000    -0.829000000
C    -1.239000000     0.859000000    -0.461000000
C    -2.288000000     1.788000000    -0.974000000
O    -3.445000000     1.432000000    -1.012000000
O    -2.086000000     2.971000000    -1.182000000
O     0.302000000     0.097000000     3.852000000
H    -0.413000000     0.635000000     3.511000000
H    -0.089000000    -0.767000000     3.980000000
O     4.276000000    -2.293000000     4.338000000
H     5.171000000    -1.971000000     4.228000000
H     4.110000000    -2.812000000     3.551000000
O     2.806000000     2.684000000     2.325000000
H     3.597000000     2.885000000     2.825000000
H     2.425000000     1.929000000     2.774000000
O    -5.105000000    -0.336000000    -0.150000000
H    -5.943000000     0.080000000     0.052000000
H    -4.522000000     0.392000000    -0.368000000
O    -4.270000000    -0.223000000    -2.856000000
H    -4.429000000    -0.936000000    -2.238000000
H    -4.111000000     0.542000000    -2.303000000
O    -4.373000000    -5.361000000    -2.096000000
H    -5.023000000    -6.017000000    -1.846000000
H    -4.825000000    -4.524000000    -1.990000000
O     3.420000000    -6.277000000     0.991000000
H     2.597000000    -6.047000000     0.560000000
H     4.064000000    -6.298000000     0.283000000
O    -2.589000000    -3.558000000    -0.965000000
H    -1.698000000    -3.627000000    -1.308000000
H    -3.054000000    -4.297000000    -1.356000000
O     5.613000000     0.374000000     2.214000000
H     4.730000000     0.429000000     2.580000000
H     5.969000000     1.257000000     2.314000000
O     7.838000000    -0.821000000     1.119000000
H     8.154000000    -0.098000000     0.576000000
H     7.005000000    -0.509000000     1.470000000
O     3.968000000    -3.829000000    -1.036000000
H     4.688000000    -4.458000000    -0.990000000
H     3.353000000    -4.215000000    -1.661000000
O     6.187000000     0.733000000    -1.283000000
H     6.103000000    -0.201000000    -1.474000000
H     5.322000000     0.990000000    -0.963000000
O    -6.906000000     2.112000000    -5.030000000
H    -7.420000000     1.305000000    -5.044000000
H    -6.674000000     2.232000000    -4.109000000
O    -5.464000000    -2.891000000    -2.104000000
H    -6.131000000    -2.214000000    -1.984000000
H    -5.187000000    -2.793000000    -3.015000000
O    -3.760000000    -2.081000000     1.245000000
H    -3.577000000    -2.681000000     0.522000000
H    -4.199000000    -1.337000000     0.833000000
O     2.099000000    -4.913000000     3.235000000
H     1.414000000    -4.697000000     2.602000000
H     2.914000000    -4.663000000     2.800000000
O     0.734000000    -4.999000000     0.584000000
H     0.185000000    -4.426000000     1.119000000
H     0.281000000    -5.050000000    -0.257000000
O     6.817000000    -3.170000000     0.782000000
H     7.340000000    -2.433000000     1.098000000
H     7.265000000    -3.945000000     1.120000000
O     3.626000000     5.461000000     1.870000000
H     3.961000000     5.846000000     2.680000000
H     3.470000000     4.542000000     2.088000000
O     3.123000000     2.592000000     5.271000000
H     3.480000000     1.891000000     4.726000000
H     2.524000000     2.147000000     5.871000000
O    -3.533000000     6.279000000    -2.908000000
H    -3.290000000     6.548000000    -3.794000000
H    -3.590000000     5.325000000    -2.954000000
O     0.627000000    -4.313000000     5.800000000
H     1.260000000    -3.950000000     6.420000000
H     1.156000000    -4.597000000     5.055000000
O    -3.506000000     4.909000000     3.731000000
H    -3.446000000     4.667000000     2.807000000
H    -3.486000000     4.075000000     4.199000000
O    -2.075000000     0.227000000    -4.206000000
H    -2.884000000    -0.154000000    -3.865000000
H    -1.962000000    -0.179000000    -5.065000000
O     0.305000000     4.219000000     1.931000000
H     0.161000000     4.932000000     1.310000000
H     1.148000000     3.844000000     1.675000000
O     4.414000000     2.711000000    -0.007000000
H     3.938000000     3.427000000    -0.428000000
H     3.841000000     2.428000000     0.705000000
O    -1.224000000    -3.872000000     2.236000000
H    -0.847000000    -3.322000000     2.922000000
H    -1.997000000    -3.391000000     1.940000000
O     3.527000000     1.406000000    -2.802000000
H     2.713000000     0.940000000    -2.994000000
H     3.242000000     2.264000000    -2.485000000
O    -3.555000000     3.658000000    -3.332000000
H    -4.315000000     3.079000000    -3.273000000
H    -2.984000000     3.376000000    -2.617000000
O     5.890000000    -1.966000000    -1.512000000
H     5.028000000    -2.333000000    -1.707000000
H     6.157000000    -2.399000000    -0.701000000
O    -0.472000000    -4.834000000    -2.228000000
H    -0.404000000    -5.786000000    -2.294000000
H     0.163000000    -4.504000000    -2.863000000
O     2.443000000     4.040000000    -1.767000000
H     2.495000000     4.991000000    -1.859000000
H     1.571000000     3.815000000    -2.093000000
O    -3.667000000     4.086000000     1.089000000
H    -4.469000000     3.956000000     0.582000000
H    -2.960000000     3.890000000     0.474000000
O    -3.474000000     3.801000000    -6.167000000
H    -3.239000000     4.004000000    -5.261000000
H    -3.041000000     4.481000000    -6.684000000
O    -6.080000000     4.032000000    -0.375000000
H    -6.972000000     4.343000000    -0.221000000
H    -6.143000000     3.510000000    -1.175000000
O    -0.189000000     5.796000000    -0.115000000
H     0.008000000     5.316000000    -0.920000000
H    -0.811000000     6.471000000    -0.386000000
O     3.094000000     0.279000000     3.824000000
H     3.496000000    -0.452000000     4.292000000
H     2.180000000     0.020000000     3.712000000
O    -1.450000000     1.796000000     2.644000000
H    -1.581000000     1.335000000     1.815000000
H    -1.481000000     2.724000000     2.410000000
O    -6.284000000     1.986000000    -2.476000000
H    -6.990000000     1.814000000    -1.853000000
H    -5.734000000     1.204000000    -2.437000000
O    -1.050000000     2.992000000    -5.110000000
H    -1.480000000     2.296000000    -4.612000000
H    -1.328000000     2.847000000    -6.014000000
O    -2.169000000     7.357000000    -0.758000000
H    -2.615000000     8.203000000    -0.814000000
H    -2.728000000     6.759000000    -1.254000000
O     1.033000000     0.110000000    -3.616000000
H     0.571000000    -0.629000000    -4.012000000
H     0.428000000     0.441000000    -2.952000000
O    -4.241000000    -0.667000000     4.307000000
H    -3.496000000    -0.997000000     4.809000000
H    -4.104000000    -1.008000000     3.423000000
O    -2.958000000    -6.106000000     1.730000000
H    -3.300000000    -6.161000000     0.837000000
H    -2.281000000    -5.431000000     1.686000000
O    -0.314000000     4.192000000    -2.854000000
H    -0.919000000     3.699000000    -2.300000000
H    -0.534000000     3.925000000    -3.747000000
O    -0.756000000    -2.318000000     4.541000000
H    -1.353000000    -1.799000000     5.079000000
H    -0.266000000    -2.848000000     5.170000000
O     0.086000000     4.620000000     4.454000000
H    -0.685000000     4.157000000     4.781000000
H     0.172000000     4.331000000     3.546000000
O     4.646000000    -4.023000000     1.978000000
H     4.233000000    -4.427000000     1.214000000
H     5.166000000    -3.305000000     1.618000000
