161
-3034.19913
C     1.014000000     0.985000000     0.317000000
H     1.784000000     1.707000000     0.580000000
C     1.138000000    -0.346000000     0.644000000
H     2.071000000    -0.721000000     1.056000000
C     0.104000000    -1.193000000     0.325000000
C     0.212000000    -2.613000000     0.720000000
H     0.987000000    -3.107000000     0.130000000
H     0.412000000    -2.632000000     1.793000000
H    -0.748000000    -3.121000000     0.608000000
C    -1.006000000    -0.753000000    -0.409000000
H    -1.770000000    -1.503000000    -0.600000000
C    -1.139000000     0.618000000    -0.742000000
H    -1.859000000     0.930000000    -1.494000000
C    -0.069000000     1.561000000    -0.417000000
C    -0.312000000     3.012000000    -0.724000000
O    -1.374000000     3.327000000    -1.287000000
O     0.561000000     3.844000000    -0.500000000
O    -2.356000000    -1.241000000     3.902000000
H    -1.687000000    -0.740000000     4.369000000
H    -2.636000000    -0.662000000     3.193000000
O    -3.387000000     6.438000000    -5.110000000
H    -2.802000000     5.801000000    -4.700000000
H    -3.025000000     6.567000000    -5.987000000
O     4.516000000    -1.186000000     4.992000000
H     3.612000000    -1.452000000     5.160000000
H     5.046000000    -1.819000000     5.477000000
O     5.639000000    -2.145000000     1.999000000
H     5.057000000    -1.986000000     2.742000000
H     6.496000000    -1.840000000     2.296000000
O    -2.418000000     7.650000000     0.958000000
H    -1.847000000     6.882000000     0.947000000
H    -2.209000000     8.115000000     0.148000000
O     3.094000000    -5.525000000     3.532000000
H     3.678000000    -6.229000000     3.251000000
H     2.260000000    -5.960000000     3.708000000
O    -4.485000000     4.385000000     0.692000000
H    -4.920000000     3.617000000     0.321000000
H    -3.622000000     4.394000000     0.279000000
O    -0.689000000    -6.239000000    -1.224000000
H    -1.173000000    -7.058000000    -1.121000000
H    -1.252000000    -5.695000000    -1.774000000
O     2.851000000    -7.541000000     0.907000000
H     2.344000000    -6.811000000     1.262000000
H     3.763000000    -7.273000000     1.011000000
O    -5.872000000     0.696000000    -0.663000000
H    -6.094000000     1.055000000    -1.522000000
H    -6.452000000     1.155000000    -0.055000000
O     3.890000000    -5.140000000    -1.681000000
H     3.733000000    -4.795000000    -0.802000000
H     3.016000000    -5.319000000    -2.028000000
O    -6.183000000    -1.855000000    -0.529000000
H    -6.329000000    -1.913000000     0.415000000
H    -6.217000000    -0.918000000    -0.719000000
O     4.774000000    -2.221000000    -0.539000000
H     5.371000000    -2.175000000     0.208000000
H     4.076000000    -2.811000000    -0.252000000
O     1.508000000     7.872000000    -3.243000000
H     1.173000000     7.034000000    -2.923000000
H     1.759000000     7.698000000    -4.150000000
O     0.846000000    -5.661000000     1.098000000
H     0.390000000    -5.405000000     0.296000000
H     0.153000000    -5.740000000     1.754000000
O    -4.507000000    -4.397000000     0.085000000
H    -5.121000000    -3.665000000     0.030000000
H    -3.928000000    -4.281000000    -0.668000000
O     1.372000000     2.367000000    -4.049000000
H     1.884000000     2.862000000    -3.409000000
H     1.891000000     2.407000000    -4.853000000
O    -2.766000000    -0.040000000    -6.820000000
H    -2.894000000     0.485000000    -6.030000000
H    -1.990000000     0.335000000    -7.234000000
O    -3.251000000     0.742000000     1.623000000
H    -3.482000000     1.640000000     1.861000000
H    -3.812000000     0.540000000     0.874000000
O     0.604000000    -2.241000000     5.621000000
H     1.435000000    -2.670000000     5.826000000
H    -0.028000000    -2.957000000     5.566000000
O    -2.000000000    -5.168000000     2.320000000
H    -2.679000000    -4.715000000     1.820000000
H    -2.169000000    -6.098000000     2.165000000
O     1.741000000     3.758000000     4.852000000
H     0.961000000     3.734000000     4.298000000
H     2.224000000     2.964000000     4.619000000
O    -1.256000000     2.100000000    -3.828000000
H    -0.332000000     2.334000000    -3.737000000
H    -1.591000000     2.099000000    -2.932000000
O     3.277000000    -4.172000000     0.998000000
H     3.573000000    -4.549000000     1.827000000
H     2.399000000    -4.531000000     0.871000000
O    -0.209000000     1.606000000     3.180000000
H    -0.114000000     1.264000000     2.291000000
H     0.374000000     1.063000000     3.709000000
O    -2.561000000     2.693000000     3.931000000
H    -2.101000000     3.448000000     4.298000000
H    -1.865000000     2.075000000     3.706000000
O     0.623000000    -6.595000000     3.872000000
H     0.475000000    -6.393000000     4.796000000
H     0.091000000    -7.373000000     3.709000000
O     3.187000000     3.417000000    -2.025000000
H     3.960000000     3.496000000    -1.466000000
H     2.468000000     3.244000000    -1.418000000
O     2.139000000     8.637000000     1.405000000
H     2.075000000     7.684000000     1.342000000
H     2.183000000     8.934000000     0.496000000
O    -1.802000000    -3.730000000     4.890000000
H    -1.995000000    -2.996000000     4.308000000
H    -1.978000000    -4.508000000     4.361000000
O     4.185000000     1.418000000    -3.894000000
H     4.190000000     2.213000000    -3.361000000
H     3.875000000     0.734000000    -3.300000000
O    -3.523000000     4.656000000    -2.279000000
H    -2.776000000     4.294000000    -1.802000000
H    -3.454000000     5.602000000    -2.149000000
O     1.467000000    -5.107000000    -2.905000000
H     0.875000000    -5.574000000    -2.315000000
H     0.978000000    -4.327000000    -3.167000000
O    -0.638000000     5.451000000     1.370000000
H    -0.465000000     4.877000000     2.116000000
H    -0.194000000     5.029000000     0.635000000
O    -4.284000000     1.885000000    -5.060000000
H    -4.617000000     2.715000000    -5.399000000
H    -3.473000000     2.119000000    -4.608000000
O    -6.059000000     3.859000000    -2.644000000
H    -5.113000000     3.993000000    -2.582000000
H    -6.253000000     3.950000000    -3.577000000
O     3.740000000     5.417000000     3.083000000
H     3.272000000     5.920000000     3.749000000
H     3.248000000     5.570000000     2.277000000
O     3.680000000     6.332000000    -1.848000000
H     2.827000000     6.142000000    -2.239000000
H     4.223000000     6.615000000    -2.584000000
O     6.096000000     1.332000000     3.836000000
H     6.885000000     1.753000000     3.495000000
H     5.999000000     0.540000000     3.307000000
O    -0.223000000    -3.130000000    -4.210000000
H     0.151000000    -2.256000000    -4.099000000
H    -0.603000000    -3.118000000    -5.089000000
O     1.818000000     0.234000000     4.495000000
H     2.709000000     0.133000000     4.161000000
H     1.628000000    -0.600000000     4.926000000
O     5.528000000     4.049000000    -0.458000000
H     5.316000000     4.928000000    -0.774000000
H     6.172000000     3.719000000    -1.084000000
O    -2.074000000    -4.016000000    -2.453000000
H    -1.590000000    -3.656000000    -3.196000000
H    -2.883000000    -3.505000000    -2.423000000
O     0.959000000    -0.709000000    -4.148000000
H     0.314000000    -0.117000000    -3.759000000
H     1.741000000    -0.599000000    -3.608000000
O     3.439000000    -1.010000000    -2.948000000
H     3.857000000    -1.002000000    -2.087000000
H     3.705000000    -1.845000000    -3.335000000
O     2.379000000     5.408000000     0.601000000
H     1.630000000     4.902000000     0.286000000
H     2.837000000     5.678000000    -0.195000000
O     0.629000000     5.420000000    -2.596000000
H    -0.290000000     5.407000000    -2.866000000
H     0.645000000     4.926000000    -1.777000000
O    -4.775000000    -3.020000000    -2.574000000
H    -5.348000000    -2.559000000    -1.961000000
H    -5.361000000    -3.325000000    -3.267000000
