161
-3060.70455
C    -0.132000000     1.173000000     0.910000000
H    -0.127000000     1.964000000     1.655000000
C     0.125000000    -0.161000000     1.310000000
H     0.330000000    -0.492000000     2.325000000
C     0.159000000    -1.151000000     0.343000000
C     0.529000000    -2.516000000     0.866000000
H     0.887000000    -3.170000000     0.068000000
H     1.383000000    -2.396000000     1.536000000
H    -0.307000000    -3.017000000     1.358000000
C    -0.046000000    -0.892000000    -0.996000000
H    -0.082000000    -1.648000000    -1.777000000
C    -0.347000000     0.421000000    -1.364000000
H    -0.707000000     0.529000000    -2.384000000
C    -0.341000000     1.503000000    -0.488000000
C    -0.481000000     2.898000000    -1.006000000
O    -0.268000000     3.190000000    -2.182000000
O    -0.568000000     3.765000000    -0.181000000
O    -1.314000000    -5.792000000    -4.130000000
H    -0.489000000    -5.656000000    -3.663000000
H    -1.718000000    -6.540000000    -3.689000000
O    -3.079000000    -4.229000000     1.221000000
H    -2.409000000    -4.531000000     1.834000000
H    -3.367000000    -3.388000000     1.576000000
O     4.175000000    -1.345000000     1.575000000
H     3.581000000    -1.850000000     2.131000000
H     4.775000000    -1.997000000     1.212000000
O    -2.482000000     4.654000000     1.817000000
H    -3.145000000     4.029000000     1.521000000
H    -1.661000000     4.320000000     1.456000000
O    -3.075000000     7.382000000    -0.670000000
H    -2.438000000     6.786000000    -1.063000000
H    -3.886000000     6.876000000    -0.632000000
O    -3.066000000    -2.578000000    -2.850000000
H    -3.173000000    -3.498000000    -2.609000000
H    -2.945000000    -2.591000000    -3.799000000
O     4.771000000     4.030000000    -2.089000000
H     3.918000000     4.362000000    -1.806000000
H     4.735000000     3.091000000    -1.907000000
O     3.053000000    -4.271000000     3.144000000
H     2.243000000    -4.697000000     2.862000000
H     2.763000000    -3.468000000     3.576000000
O    -3.167000000     1.287000000     2.355000000
H    -3.621000000     1.650000000     1.595000000
H    -2.541000000     0.664000000     1.985000000
O     2.446000000    -3.554000000    -4.377000000
H     2.065000000    -4.419000000    -4.227000000
H     1.751000000    -2.941000000    -4.137000000
O    -2.448000000    -3.272000000    -5.382000000
H    -2.418000000    -4.116000000    -4.932000000
H    -2.073000000    -3.447000000    -6.246000000
O     1.405000000    -5.967000000     1.378000000
H     1.918000000    -5.717000000     0.609000000
H     1.512000000    -6.916000000     1.439000000
O     1.365000000    -6.339000000     4.662000000
H     1.125000000    -7.205000000     4.989000000
H     1.462000000    -6.458000000     3.717000000
O     5.052000000    -3.765000000     1.333000000
H     5.045000000    -4.428000000     0.643000000
H     4.481000000    -4.122000000     2.014000000
O    -0.969000000    -3.491000000     4.611000000
H    -1.402000000    -4.029000000     5.274000000
H    -0.713000000    -4.111000000     3.929000000
O     1.426000000     2.377000000     3.653000000
H     1.359000000     3.303000000     3.420000000
H     2.086000000     2.027000000     3.055000000
O     2.730000000    -1.682000000     4.004000000
H     3.503000000    -1.152000000     4.196000000
H     2.151000000    -1.542000000     4.754000000
O     2.188000000     6.832000000    -4.007000000
H     2.519000000     6.146000000    -3.427000000
H     2.924000000     7.435000000    -4.111000000
O    -2.492000000     7.093000000     3.108000000
H    -2.535000000     6.454000000     2.397000000
H    -1.636000000     7.510000000     3.003000000
O    -1.691000000     3.470000000    -7.412000000
H    -1.213000000     3.305000000    -6.599000000
H    -2.125000000     2.640000000    -7.608000000
O    -3.615000000     2.821000000     0.072000000
H    -3.364000000     3.442000000    -0.612000000
H    -4.571000000     2.806000000     0.043000000
O    -0.372000000     1.041000000     5.599000000
H    -1.019000000     1.727000000     5.434000000
H     0.273000000     1.146000000     4.900000000
O    -0.297000000     2.970000000    -4.833000000
H    -0.659000000     2.090000000    -4.935000000
H    -0.269000000     3.108000000    -3.886000000
O    -1.061000000    -5.722000000    -0.411000000
H    -1.761000000    -5.212000000    -0.004000000
H    -0.289000000    -5.539000000     0.124000000
O     0.473000000    -2.482000000     6.602000000
H    -0.041000000    -2.750000000     5.841000000
H     0.617000000    -3.292000000     7.091000000
O    -3.011000000    -0.740000000    -0.688000000
H    -2.165000000    -0.512000000    -1.075000000
H    -3.101000000    -1.680000000    -0.848000000
O     3.120000000     2.083000000     6.109000000
H     2.355000000     1.859000000     5.579000000
H     2.958000000     2.982000000     6.396000000
O    -0.961000000    -5.580000000     2.974000000
H    -1.414000000    -6.317000000     3.384000000
H    -0.388000000    -5.983000000     2.322000000
O    -4.279000000    -2.371000000     2.894000000
H    -4.705000000    -2.775000000     3.650000000
H    -3.847000000    -1.594000000     3.249000000
O    -1.953000000    -0.819000000     3.926000000
H    -1.868000000    -1.674000000     4.348000000
H    -1.410000000    -0.235000000     4.455000000
O     2.087000000     4.752000000    -2.203000000
H     1.396000000     4.189000000    -2.553000000
H     2.066000000     4.598000000    -1.258000000
O     4.688000000    -3.225000000    -2.065000000
H     4.273000000    -2.362000000    -2.036000000
H     5.623000000    -3.038000000    -2.151000000
O     0.519000000    -1.239000000    -4.241000000
H    -0.292000000    -0.833000000    -4.546000000
H     1.175000000    -0.545000000    -4.308000000
O     2.972000000    -1.068000000    -2.292000000
H     2.673000000    -0.548000000    -3.038000000
H     2.239000000    -1.047000000    -1.677000000
O     2.025000000     0.810000000    -4.250000000
H     1.451000000     1.527000000    -3.981000000
H     2.548000000     1.176000000    -4.963000000
O     1.436000000    -5.912000000    -3.474000000
H     1.236000000    -5.929000000    -2.538000000
H     2.217000000    -6.458000000    -3.563000000
O     1.720000000     3.159000000    -6.949000000
H     1.421000000     3.445000000    -7.812000000
H     1.013000000     3.412000000    -6.355000000
O    -3.033000000     4.150000000    -2.285000000
H    -3.487000000     4.922000000    -2.622000000
H    -2.160000000     4.197000000    -2.673000000
O    -2.287000000     2.920000000     4.616000000
H    -2.553000000     2.319000000     3.920000000
H    -2.802000000     3.711000000     4.459000000
O     0.477000000     5.071000000     2.057000000
H     0.100000000     5.891000000     1.740000000
H     0.578000000     4.533000000     1.272000000
O     3.243000000     1.279000000     1.551000000
H     3.857000000     0.574000000     1.342000000
H     2.417000000     1.004000000     1.153000000
O    -0.177000000     7.889000000    -4.044000000
H     0.710000000     7.528000000    -4.031000000
H    -0.656000000     7.369000000    -3.399000000
O     2.744000000     3.555000000     0.317000000
H     3.064000000     4.368000000     0.708000000
H     3.151000000     2.862000000     0.836000000
O    -3.452000000     1.295000000    -2.576000000
H    -3.313000000     0.783000000    -1.780000000
H    -3.226000000     2.191000000    -2.327000000
O     3.159000000    -5.127000000    -0.807000000
H     3.813000000    -5.774000000    -0.544000000
H     3.672000000    -4.395000000    -1.151000000
O    -0.152000000     4.873000000     4.626000000
H     0.072000000     5.109000000     3.726000000
H    -0.979000000     4.397000000     4.551000000
O    -0.884000000     6.190000000    -1.854000000
H    -0.079000000     5.740000000    -2.107000000
H    -1.027000000     5.933000000    -0.943000000
O    -1.742000000     0.343000000    -4.599000000
H    -2.182000000    -0.013000000    -5.371000000
H    -2.453000000     0.550000000    -3.993000000
