161
-3058.88059
C    -0.426000000    -0.630000000    -1.287000000
H    -0.613000000    -0.929000000    -2.316000000
C     0.902000000    -0.327000000    -0.930000000
H     1.676000000    -0.542000000    -1.662000000
C     1.172000000     0.203000000     0.344000000
C     2.641000000     0.471000000     0.730000000
H     3.365000000     0.171000000    -0.030000000
H     2.754000000     1.532000000     0.964000000
H     2.801000000    -0.068000000     1.666000000
C     0.127000000     0.553000000     1.186000000
H     0.291000000     0.980000000     2.172000000
C    -1.189000000     0.285000000     0.798000000
H    -2.028000000     0.669000000     1.373000000
C    -1.488000000    -0.250000000    -0.473000000
C    -2.944000000    -0.612000000    -0.726000000
O    -3.903000000    -0.284000000    -0.081000000
O    -3.138000000    -1.216000000    -1.736000000
O     1.604000000     4.467000000     1.902000000
H     1.405000000     5.102000000     1.214000000
H     0.911000000     3.811000000     1.830000000
O     5.541000000     0.883000000     3.164000000
H     4.760000000     1.420000000     3.030000000
H     5.430000000     0.515000000     4.040000000
O     0.464000000    -0.461000000     4.917000000
H     1.265000000    -0.719000000     5.374000000
H     0.701000000     0.341000000     4.451000000
O     1.731000000     2.151000000     3.965000000
H     1.593000000     2.754000000     4.695000000
H     2.169000000     2.680000000     3.297000000
O    -4.759000000     2.396000000     3.347000000
H    -5.497000000     2.713000000     3.868000000
H    -4.617000000     1.501000000     3.653000000
O     2.222000000    -1.084000000    -5.345000000
H     3.069000000    -1.260000000    -4.936000000
H     1.621000000    -1.699000000    -4.925000000
O    -5.021000000    -1.563000000     1.872000000
H    -4.310000000    -1.359000000     1.265000000
H    -4.826000000    -1.044000000     2.652000000
O    -1.494000000    -3.957000000     1.226000000
H    -0.977000000    -3.492000000     1.883000000
H    -2.392000000    -3.921000000     1.558000000
O    -1.892000000     2.876000000     3.686000000
H    -2.447000000     3.549000000     4.081000000
H    -1.645000000     3.238000000     2.835000000
O    -1.927000000     3.944000000     1.188000000
H    -2.736000000     3.432000000     1.173000000
H    -1.416000000     3.607000000     0.452000000
O     3.169000000     3.075000000    -1.681000000
H     3.638000000     2.497000000    -2.283000000
H     3.747000000     3.147000000    -0.921000000
O    -4.582000000    -5.036000000    -3.139000000
H    -5.092000000    -5.845000000    -3.165000000
H    -3.674000000    -5.322000000    -3.231000000
O    -2.967000000    -0.181000000    -6.911000000
H    -3.072000000    -0.179000000    -5.959000000
H    -2.544000000    -1.017000000    -7.103000000
O     3.130000000    -2.276000000     2.937000000
H     3.027000000    -2.909000000     3.648000000
H     2.298000000    -2.309000000     2.464000000
O    -3.962000000    -3.803000000     2.489000000
H    -4.484000000    -3.156000000     2.014000000
H    -3.756000000    -3.379000000     3.322000000
O    -5.726000000    -0.253000000    -2.431000000
H    -6.133000000    -0.110000000    -1.577000000
H    -4.811000000    -0.451000000    -2.231000000
O     3.638000000    -4.381000000     0.561000000
H     3.858000000    -4.783000000     1.401000000
H     2.987000000    -3.713000000     0.777000000
O     5.324000000     2.838000000     0.192000000
H     5.639000000     3.641000000    -0.223000000
H     4.886000000     3.136000000     0.989000000
O    -0.045000000     0.735000000    -4.476000000
H     0.871000000     0.480000000    -4.367000000
H    -0.039000000     1.689000000    -4.392000000
O    -2.020000000    -3.281000000    -2.842000000
H    -1.654000000    -3.561000000    -2.003000000
H    -2.550000000    -2.512000000    -2.627000000
O     1.822000000     5.432000000    -2.144000000
H     2.524000000     6.012000000    -2.441000000
H     2.242000000     4.578000000    -2.046000000
O    -0.216000000    -2.089000000     2.859000000
H     0.016000000    -1.489000000     3.567000000
H     0.204000000    -1.719000000     2.083000000
O     4.270000000     1.674000000    -3.756000000
H     4.695000000     1.900000000    -4.584000000
H     4.304000000     0.718000000    -3.723000000
O     8.189000000    -1.312000000    -0.838000000
H     8.285000000    -1.201000000     0.108000000
H     7.350000000    -0.900000000    -1.043000000
O    -6.973000000    -3.531000000     1.228000000
H    -6.832000000    -2.729000000     1.732000000
H    -6.342000000    -3.477000000     0.511000000
O    -2.287000000    -0.745000000    -4.321000000
H    -2.609000000    -0.760000000    -3.420000000
H    -1.434000000    -0.315000000    -4.264000000
O    -5.260000000     3.942000000    -1.703000000
H    -4.476000000     3.668000000    -2.180000000
H    -5.179000000     3.522000000    -0.847000000
O     4.048000000     3.573000000     2.553000000
H     4.247000000     4.176000000     3.269000000
H     3.278000000     3.951000000     2.128000000
O     2.645000000    -0.853000000     6.145000000
H     2.467000000    -1.282000000     6.982000000
H     3.572000000    -1.025000000     5.981000000
O    -4.327000000     2.483000000     0.744000000
H    -4.491000000     1.674000000     0.260000000
H    -4.422000000     2.235000000     1.664000000
O    -4.354000000    -2.811000000    -5.091000000
H    -4.629000000    -3.666000000    -4.761000000
H    -3.747000000    -2.483000000    -4.428000000
O    -2.342000000     0.836000000     5.343000000
H    -1.545000000     0.498000000     5.752000000
H    -2.059000000     1.629000000     4.888000000
O     4.157000000    -1.700000000    -3.756000000
H     4.952000000    -1.235000000    -4.016000000
H     4.418000000    -2.210000000    -2.989000000
O     5.541000000    -1.768000000     1.236000000
H     5.560000000    -0.975000000     0.700000000
H     4.630000000    -1.845000000     1.519000000
O    -5.030000000    -3.223000000    -0.997000000
H    -4.413000000    -2.501000000    -1.122000000
H    -4.884000000    -3.796000000    -1.749000000
O     0.437000000    -2.856000000    -4.412000000
H     0.857000000    -3.533000000    -3.882000000
H    -0.495000000    -2.933000000    -4.205000000
O     1.361000000    -5.019000000    -2.815000000
H     0.626000000    -5.222000000    -2.237000000
H     2.072000000    -5.579000000    -2.503000000
O    -4.647000000    -0.252000000     4.378000000
H    -5.251000000    -0.506000000     5.076000000
H    -3.874000000     0.074000000     4.838000000
O    -0.359000000     2.934000000    -0.855000000
H     0.540000000     3.263000000    -0.858000000
H    -0.279000000     2.022000000    -0.578000000
O    -0.166000000    -0.836000000    -6.824000000
H    -0.606000000    -0.520000000    -6.035000000
H     0.738000000    -0.990000000    -6.549000000
O     1.430000000    -2.976000000     0.659000000
H     1.102000000    -2.276000000     0.095000000
H     1.235000000    -3.781000000     0.179000000
O     5.898000000     0.288000000    -1.007000000
H     5.981000000     1.051000000    -0.435000000
H     5.258000000     0.552000000    -1.668000000
O     5.015000000    -3.100000000    -1.444000000
H     5.936000000    -3.292000000    -1.619000000
H     4.835000000    -3.531000000    -0.608000000
O    -4.522000000     1.948000000    -4.480000000
H    -5.126000000     1.572000000    -3.840000000
H    -3.773000000     2.240000000    -3.959000000
O     5.147000000    -1.643000000     4.817000000
H     5.703000000    -2.401000000     4.638000000
H     4.545000000    -1.606000000     4.074000000
O    -6.757000000    -0.107000000     0.026000000
H    -5.907000000    -0.516000000     0.192000000
H    -7.222000000    -0.175000000     0.860000000
O    -2.447000000     2.888000000    -2.832000000
H    -1.826000000     3.005000000    -2.113000000
H    -2.187000000     3.543000000    -3.481000000
O    -0.320000000    -5.198000000    -0.753000000
H    -0.766000000    -4.848000000     0.018000000
H    -0.624000000    -6.103000000    -0.815000000
