161
-3016.41158
C     0.070000000     1.145000000     0.927000000
H    -0.043000000     1.910000000     1.691000000
C    -0.246000000    -0.121000000     1.298000000
H    -0.377000000    -0.256000000     2.368000000
C    -0.281000000    -1.152000000     0.327000000
C    -0.591000000    -2.589000000     0.709000000
H     0.054000000    -3.254000000     0.131000000
H    -0.525000000    -2.778000000     1.783000000
H    -1.653000000    -2.738000000     0.504000000
C    -0.139000000    -0.794000000    -1.018000000
H    -0.124000000    -1.633000000    -1.708000000
C     0.177000000     0.494000000    -1.344000000
H     0.412000000     0.725000000    -2.380000000
C     0.361000000     1.470000000    -0.357000000
C     0.803000000     2.807000000    -0.855000000
O     0.965000000     3.093000000    -1.997000000
O     1.136000000     3.674000000    -0.073000000
O     4.680000000    -2.684000000    -2.693000000
H     4.517000000    -2.425000000    -1.786000000
H     3.822000000    -2.630000000    -3.115000000
O    -1.086000000    -6.505000000     1.236000000
H    -1.948000000    -6.171000000     0.989000000
H    -1.196000000    -6.808000000     2.137000000
O     2.274000000    -4.053000000     4.366000000
H     3.218000000    -4.046000000     4.208000000
H     1.921000000    -4.622000000     3.683000000
O    -5.350000000    -2.740000000     0.242000000
H    -4.887000000    -2.404000000     1.009000000
H    -4.671000000    -3.167000000    -0.280000000
O    -1.922000000     3.958000000     2.972000000
H    -1.672000000     4.858000000     3.183000000
H    -1.208000000     3.424000000     3.320000000
O    -3.302000000     0.730000000    -0.671000000
H    -3.221000000     1.555000000    -0.192000000
H    -2.547000000     0.214000000    -0.388000000
O     3.698000000     3.357000000    -5.833000000
H     3.561000000     3.297000000    -4.887000000
H     4.143000000     4.195000000    -5.958000000
O     1.119000000     6.531000000    -4.629000000
H     1.120000000     7.440000000    -4.927000000
H     1.871000000     6.134000000    -5.068000000
O    -2.392000000     1.367000000     5.784000000
H    -2.379000000     0.553000000     5.281000000
H    -1.626000000     1.851000000     5.476000000
O     5.588000000     3.357000000    -0.789000000
H     4.783000000     3.102000000    -0.339000000
H     5.978000000     2.530000000    -1.071000000
O     1.368000000     4.691000000     5.617000000
H     1.044000000     5.036000000     4.785000000
H     2.006000000     5.341000000     5.914000000
O     0.239000000     6.233000000     3.451000000
H    -0.352000000     6.419000000     4.180000000
H     0.371000000     7.082000000     3.028000000
O    -0.004000000     8.516000000    -0.045000000
H    -0.955000000     8.557000000     0.052000000
H     0.201000000     7.582000000    -0.002000000
O    -0.702000000     2.683000000    -3.797000000
H    -0.581000000     3.514000000    -4.255000000
H    -0.003000000     2.665000000    -3.144000000
O     0.487000000    -7.477000000    -0.781000000
H     1.139000000    -6.781000000    -0.704000000
H    -0.286000000    -7.131000000    -0.335000000
O     1.052000000    -5.191000000     2.074000000
H     1.639000000    -5.103000000     1.323000000
H     0.245000000    -5.551000000     1.706000000
O     1.206000000    -1.142000000     5.254000000
H     1.907000000    -1.793000000     5.224000000
H     1.088000000    -0.961000000     6.187000000
O    -2.637000000     0.964000000    -4.646000000
H    -2.028000000     1.620000000    -4.305000000
H    -2.133000000     0.150000000    -4.652000000
O    -0.076000000     5.867000000     0.688000000
H     0.347000000     5.073000000     0.361000000
H    -0.124000000     5.741000000     1.635000000
O     2.404000000     6.062000000    -1.081000000
H     2.732000000     5.976000000    -1.976000000
H     1.689000000     5.428000000    -1.025000000
O    -0.132000000     2.381000000     4.463000000
H     0.436000000     2.083000000     3.753000000
H     0.459000000     2.820000000     5.074000000
O    -4.704000000    -1.635000000    -2.158000000
H    -4.383000000    -0.786000000    -1.855000000
H    -5.160000000    -2.003000000    -1.402000000
O    -0.079000000    -3.900000000     5.989000000
H     0.404000000    -3.877000000     5.164000000
H     0.420000000    -3.331000000     6.575000000
O     4.859000000    -1.523000000     0.106000000
H     5.135000000    -2.432000000     0.223000000
H     4.300000000    -1.343000000     0.862000000
O     2.255000000    -5.452000000    -0.698000000
H     2.690000000    -5.560000000    -1.544000000
H     2.798000000    -4.820000000    -0.228000000
O    -2.988000000     3.344000000     0.429000000
H    -2.954000000     4.136000000    -0.108000000
H    -2.608000000     3.607000000     1.268000000
O    -0.031000000    -2.971000000    -3.987000000
H    -0.061000000    -3.896000000    -3.742000000
H    -0.681000000    -2.887000000    -4.685000000
O     1.922000000    -1.790000000    -2.792000000
H     1.293000000    -2.359000000    -3.235000000
H     1.587000000    -1.712000000    -1.899000000
O     3.089000000    -1.534000000     2.133000000
H     2.224000000    -1.225000000     2.403000000
H     3.670000000    -1.273000000     2.847000000
O     3.706000000     0.838000000    -3.860000000
H     4.237000000     0.312000000    -4.459000000
H     3.481000000     0.238000000    -3.149000000
O     3.634000000    -3.988000000     1.160000000
H     4.551000000    -4.076000000     1.420000000
H     3.383000000    -3.114000000     1.461000000
O     3.052000000     0.634000000    -6.955000000
H     2.506000000     0.151000000    -6.335000000
H     3.033000000     1.537000000    -6.638000000
O    -4.461000000    -1.627000000     2.718000000
H    -5.063000000    -2.031000000     3.343000000
H    -3.625000000    -2.065000000     2.873000000
O    -0.444000000     5.304000000    -2.740000000
H     0.215000000     5.704000000    -3.308000000
H     0.000000000     4.550000000    -2.352000000
O     1.760000000    -1.291000000    -5.658000000
H     1.858000000    -1.451000000    -4.719000000
H     0.935000000    -0.812000000    -5.735000000
O     2.297000000     0.909000000     3.516000000
H     3.077000000     1.125000000     4.028000000
H     1.779000000     0.348000000     4.093000000
O     3.815000000     7.893000000     0.881000000
H     3.340000000     7.282000000     0.318000000
H     3.285000000     8.690000000     0.871000000
O    -3.576000000    -5.645000000     0.401000000
H    -3.948000000    -5.424000000    -0.453000000
H    -4.328000000    -5.923000000     0.925000000
O     5.284000000     5.014000000     1.868000000
H     4.721000000     4.241000000     1.904000000
H     5.541000000     5.081000000     0.948000000
O    -0.879000000    -5.715000000    -3.614000000
H    -0.403000000    -6.273000000    -4.229000000
H    -0.468000000    -5.887000000    -2.767000000
O     0.024000000     0.694000000    -5.968000000
H     0.128000000     1.025000000    -5.076000000
H    -0.493000000     1.366000000    -6.413000000
O    -2.121000000    -2.237000000     4.401000000
H    -1.527000000    -2.583000000     5.067000000
H    -2.151000000    -2.919000000     3.730000000
O    -4.597000000    -3.638000000     5.068000000
H    -3.664000000    -3.844000000     5.017000000
H    -4.718000000    -3.292000000     5.952000000
O    -4.390000000    -4.964000000    -2.150000000
H    -3.884000000    -4.460000000    -2.787000000
H    -5.165000000    -5.253000000    -2.632000000
O    -3.031000000     5.496000000    -1.527000000
H    -3.274000000     5.143000000    -2.383000000
H    -2.075000000     5.534000000    -1.546000000
O     3.180000000     3.222000000     1.792000000
H     2.459000000     3.497000000     1.226000000
H     2.830000000     2.474000000     2.278000000
O     3.411000000     3.484000000    -3.107000000
H     2.677000000     3.469000000    -2.493000000
H     3.441000000     2.597000000    -3.466000000
O    -2.806000000    -4.403000000     2.849000000
H    -2.773000000    -5.300000000     3.181000000
H    -2.990000000    -4.499000000     1.914000000
