161
-3001.49755
C     0.163000000    -0.414000000    -1.440000000
H     0.077000000    -0.777000000    -2.460000000
C    -0.667000000     0.558000000    -0.959000000
H    -1.287000000     1.038000000    -1.711000000
C    -0.790000000     0.881000000     0.390000000
C    -1.641000000     2.017000000     0.870000000
H    -2.685000000     1.728000000     1.012000000
H    -1.235000000     2.334000000     1.833000000
H    -1.743000000     2.824000000     0.141000000
C    -0.005000000     0.170000000     1.259000000
H     0.029000000     0.467000000     2.304000000
C     0.849000000    -0.851000000     0.788000000
H     1.563000000    -1.231000000     1.513000000
C     0.909000000    -1.193000000    -0.531000000
C     1.882000000    -2.259000000    -0.911000000
O     2.494000000    -2.772000000    -0.015000000
O     2.082000000    -2.521000000    -2.078000000
O     1.891000000    -6.608000000     3.431000000
H     1.718000000    -5.962000000     2.746000000
H     1.097000000    -6.610000000     3.965000000
O    -6.268000000     1.892000000     2.921000000
H    -6.802000000     1.609000000     3.663000000
H    -5.894000000     1.082000000     2.573000000
O    -3.961000000    -2.525000000    -2.255000000
H    -3.876000000    -3.332000000    -1.748000000
H    -4.903000000    -2.431000000    -2.399000000
O    -5.193000000     1.636000000    -1.033000000
H    -5.548000000     0.998000000    -1.653000000
H    -4.411000000     1.980000000    -1.465000000
O    -4.146000000     1.169000000    -5.919000000
H    -5.008000000     0.756000000    -5.973000000
H    -3.702000000     0.705000000    -5.209000000
O    -2.088000000    -3.453000000     1.981000000
H    -1.971000000    -3.560000000     2.924000000
H    -2.704000000    -2.725000000     1.897000000
O    -6.508000000     4.737000000     2.515000000
H    -7.096000000     4.584000000     1.775000000
H    -6.277000000     3.861000000     2.823000000
O     3.375000000    -3.218000000     2.471000000
H     2.929000000    -2.412000000     2.732000000
H     2.969000000    -3.458000000     1.639000000
O    -0.116000000     4.268000000    -1.776000000
H     0.298000000     3.551000000    -1.296000000
H     0.471000000     5.013000000    -1.648000000
O     4.668000000    -4.206000000    -0.823000000
H     4.619000000    -4.350000000    -1.768000000
H     4.041000000    -3.503000000    -0.655000000
O     1.370000000     4.373000000     1.155000000
H     0.478000000     4.419000000     1.501000000
H     1.924000000     4.303000000     1.932000000
O     6.041000000    -5.456000000    -4.441000000
H     5.406000000    -4.867000000    -4.033000000
H     5.695000000    -6.333000000    -4.275000000
O    -1.755000000     4.381000000     5.492000000
H    -2.393000000     4.163000000     4.812000000
H    -1.714000000     3.598000000     6.041000000
O     2.694000000    -0.838000000     3.771000000
H     1.987000000    -0.583000000     4.363000000
H     3.423000000    -1.062000000     4.349000000
O    -4.287000000     5.661000000     3.729000000
H    -4.296000000     4.743000000     3.999000000
H    -5.097000000     5.773000000     3.232000000
O    -3.785000000     2.910000000     4.210000000
H    -4.636000000     2.605000000     3.897000000
H    -3.411000000     2.153000000     4.661000000
O    -1.979000000     3.042000000    -5.310000000
H    -1.829000000     3.977000000    -5.451000000
H    -2.770000000     2.848000000    -5.813000000
O     0.752000000     0.774000000     7.411000000
H     1.141000000     0.129000000     8.003000000
H     0.507000000     0.270000000     6.635000000
O    -7.287000000     3.560000000     0.015000000
H    -7.447000000     4.121000000    -0.744000000
H    -6.707000000     2.873000000    -0.314000000
O     5.025000000     0.913000000    -2.867000000
H     5.312000000     0.848000000    -3.778000000
H     4.069000000     0.916000000    -2.918000000
O    -0.602000000     0.926000000    -4.428000000
H    -0.855000000     1.736000000    -4.870000000
H    -1.430000000     0.536000000    -4.149000000
O    -2.978000000    -0.135000000    -3.447000000
H    -3.766000000     0.121000000    -2.968000000
H    -2.912000000    -1.080000000    -3.313000000
O     2.986000000     1.964000000     1.904000000
H     2.909000000     1.182000000     2.450000000
H     3.114000000     2.680000000     2.526000000
O     0.342000000    -1.021000000     5.321000000
H    -0.593000000    -1.086000000     5.124000000
H     0.716000000    -1.831000000     4.975000000
O     4.334000000     0.291000000     0.170000000
H     3.761000000    -0.442000000    -0.055000000
H     3.765000000     0.907000000     0.632000000
O     1.014000000    -0.196000000    -6.055000000
H     1.027000000    -1.092000000    -5.720000000
H     0.473000000     0.286000000    -5.430000000
O     6.166000000     1.047000000     2.157000000
H     5.662000000     0.593000000     1.482000000
H     5.550000000     1.162000000     2.880000000
O    -3.354000000    -1.048000000     0.275000000
H    -2.552000000    -0.527000000     0.255000000
H    -3.257000000    -1.665000000    -0.451000000
O     1.722000000    -3.327000000     4.927000000
H     2.518000000    -3.110000000     4.442000000
H     1.967000000    -3.226000000     5.847000000
O    -0.280000000     6.728000000     2.992000000
H     0.043000000     6.262000000     3.763000000
H    -1.111000000     7.111000000     3.275000000
O     5.781000000    -4.098000000     1.947000000
H     5.737000000    -3.747000000     1.057000000
H     5.044000000    -3.689000000     2.401000000
O     4.020000000    -4.112000000    -3.473000000
H     3.503000000    -3.432000000    -3.041000000
H     3.518000000    -4.331000000    -4.259000000
O     0.696000000    -4.827000000     1.358000000
H     1.307000000    -4.497000000     0.699000000
H    -0.070000000    -4.257000000     1.281000000
O    -2.836000000     3.143000000    -2.334000000
H    -2.664000000     3.930000000    -1.817000000
H    -2.203000000     3.185000000    -3.051000000
O    -1.439000000    -5.473000000    -1.141000000
H    -1.473000000    -6.391000000    -1.411000000
H    -2.326000000    -5.280000000    -0.838000000
O    -1.949000000    -4.238000000    -4.896000000
H    -2.308000000    -3.927000000    -4.065000000
H    -2.715000000    -4.367000000    -5.455000000
O     1.090000000    -4.830000000    -2.488000000
H     0.229000000    -4.742000000    -2.079000000
H     1.423000000    -3.934000000    -2.541000000
O     1.884000000     2.143000000    -0.655000000
H     1.459000000     1.324000000    -0.399000000
H     1.741000000     2.729000000     0.088000000
O     7.422000000    -4.620000000    -1.069000000
H     8.147000000    -4.489000000    -0.457000000
H     6.638000000    -4.598000000    -0.519000000
O     6.546000000    -1.619000000     0.366000000
H     5.737000000    -1.125000000     0.232000000
H     7.011000000    -1.549000000    -0.467000000
O    -2.407000000     5.735000000    -0.931000000
H    -2.395000000     6.551000000    -0.431000000
H    -1.503000000     5.421000000    -0.899000000
O     0.877000000    -2.370000000    -4.598000000
H     1.290000000    -2.006000000    -3.815000000
H     0.158000000    -2.906000000    -4.263000000
O     0.546000000     5.522000000     5.072000000
H    -0.081000000     4.901000000     5.442000000
H     0.643000000     6.196000000     5.745000000
O     2.293000000     1.279000000    -3.171000000
H     1.422000000     0.987000000    -3.440000000
H     2.142000000     1.771000000    -2.365000000
O     4.165000000    -6.646000000     0.049000000
H     5.095000000    -6.814000000     0.203000000
H     4.146000000    -5.805000000    -0.407000000
O    -5.789000000    -0.303000000     1.131000000
H    -4.989000000    -0.823000000     1.052000000
H    -5.965000000     0.003000000     0.241000000
O     2.044000000    -7.499000000    -2.619000000
H     2.143000000    -7.557000000    -1.669000000
H     1.739000000    -6.605000000    -2.774000000
O     2.643000000    -4.531000000    -5.726000000
H     2.205000000    -5.009000000    -6.430000000
H     2.048000000    -3.811000000    -5.519000000
