161
-3046.78819
C    -0.199000000    -1.304000000    -0.696000000
H    -0.380000000    -2.243000000    -1.213000000
C    -0.436000000     0.013000000    -1.202000000
H    -0.839000000     0.170000000    -2.199000000
C    -0.135000000     1.113000000    -0.470000000
C    -0.218000000     2.538000000    -1.121000000
H     0.613000000     3.154000000    -0.770000000
H    -0.105000000     2.432000000    -2.202000000
H    -1.204000000     2.953000000    -0.902000000
C     0.363000000     0.979000000     0.790000000
H     0.629000000     1.890000000     1.320000000
C     0.466000000    -0.290000000     1.342000000
H     0.851000000    -0.246000000     2.357000000
C     0.154000000    -1.453000000     0.615000000
C     0.227000000    -2.861000000     1.228000000
O     0.269000000    -2.986000000     2.448000000
O    -0.049000000    -3.863000000     0.678000000
O     2.386000000     0.522000000    -2.288000000
H     2.512000000    -0.382000000    -2.576000000
H     1.511000000     0.530000000    -1.900000000
O     0.147000000    -5.556000000     6.778000000
H     0.418000000    -5.213000000     5.926000000
H     0.614000000    -6.387000000     6.861000000
O    -1.657000000    -7.081000000    -2.367000000
H    -2.613000000    -7.130000000    -2.375000000
H    -1.411000000    -7.348000000    -1.481000000
O     0.787000000     4.706000000     3.064000000
H     0.658000000     5.392000000     3.720000000
H     0.362000000     5.046000000     2.276000000
O     2.935000000    -5.716000000     5.856000000
H     2.335000000    -5.595000000     5.120000000
H     3.419000000    -4.891000000     5.907000000
O    -1.158000000    -7.835000000     0.133000000
H    -1.200000000    -8.759000000    -0.113000000
H    -1.811000000    -7.742000000     0.826000000
O     1.490000000     7.597000000     1.413000000
H     1.376000000     7.105000000     0.600000000
H     0.869000000     7.199000000     2.023000000
O    -2.080000000    -4.799000000     2.860000000
H    -1.226000000    -4.371000000     2.802000000
H    -1.932000000    -5.551000000     3.435000000
O    -1.059000000    -1.072000000     4.133000000
H    -1.582000000    -0.553000000     3.522000000
H    -0.715000000    -1.791000000     3.603000000
O    -1.080000000     6.125000000     1.174000000
H    -1.608000000     5.367000000     1.423000000
H    -1.701000000     6.722000000     0.756000000
O    -2.237000000     6.749000000    -2.873000000
H    -1.900000000     5.907000000    -3.178000000
H    -2.724000000     7.098000000    -3.620000000
O     1.193000000    -4.463000000    -1.667000000
H     2.113000000    -4.202000000    -1.642000000
H     0.849000000    -4.209000000    -0.810000000
O     2.766000000     3.037000000     1.788000000
H     3.458000000     2.850000000     2.423000000
H     2.137000000     3.572000000     2.271000000
O     4.365000000    -0.753000000     4.479000000
H     3.987000000    -1.476000000     3.977000000
H     3.619000000    -0.357000000     4.928000000
O    -3.381000000    -4.776000000    -2.835000000
H    -2.570000000    -5.142000000    -2.483000000
H    -3.124000000    -4.379000000    -3.667000000
O     3.617000000     1.875000000    -0.532000000
H     3.012000000     1.959000000     0.206000000
H     3.196000000     1.244000000    -1.116000000
O    -4.204000000     1.440000000     3.520000000
H    -4.650000000     2.049000000     2.932000000
H    -3.584000000     0.976000000     2.958000000
O    -1.098000000    -0.899000000     7.008000000
H    -0.871000000    -0.944000000     6.079000000
H    -1.956000000    -0.476000000     7.025000000
O    -1.937000000     4.051000000    -3.675000000
H    -2.587000000     3.456000000    -3.300000000
H    -1.189000000     3.992000000    -3.082000000
O    -4.945000000     0.481000000    -0.828000000
H    -5.030000000    -0.362000000    -0.383000000
H    -5.823000000     0.860000000    -0.792000000
O    -2.482000000     7.848000000    -0.345000000
H    -2.482000000     7.263000000    -1.103000000
H    -2.769000000     8.691000000    -0.693000000
O    -2.870000000    -4.472000000     0.212000000
H    -1.944000000    -4.264000000     0.090000000
H    -2.937000000    -4.732000000     1.131000000
O     1.095000000    -4.909000000     4.029000000
H     0.951000000    -4.140000000     3.478000000
H     0.985000000    -5.653000000     3.437000000
O     3.026000000    -2.787000000     3.067000000
H     3.039000000    -3.650000000     2.654000000
H     2.136000000    -2.466000000     2.923000000
O     4.289000000    -0.990000000    -0.044000000
H     4.528000000    -0.207000000     0.452000000
H     4.811000000    -1.690000000     0.348000000
O     3.578000000     3.796000000    -2.684000000
H     3.020000000     4.482000000    -2.318000000
H     3.463000000     3.053000000    -2.092000000
O    -2.027000000     0.728000000    -4.516000000
H    -2.453000000     0.942000000    -3.686000000
H    -2.427000000     1.323000000    -5.151000000
O     3.296000000    -5.116000000     1.475000000
H     2.452000000    -5.555000000     1.366000000
H     3.421000000    -4.631000000     0.660000000
O    -4.035000000    -2.731000000     3.034000000
H    -3.833000000    -2.386000000     3.904000000
H    -3.428000000    -3.462000000     2.919000000
O     0.889000000    -6.228000000     1.279000000
H     0.317000000    -6.859000000     0.843000000
H     0.507000000    -5.375000000     1.070000000
O    -3.820000000     2.353000000    -2.583000000
H    -4.733000000     2.578000000    -2.762000000
H    -3.862000000     1.768000000    -1.827000000
O    -3.024000000     3.154000000    -6.009000000
H    -2.747000000     3.631000000    -5.227000000
H    -2.547000000     3.571000000    -6.726000000
O    -0.870000000     4.806000000    -6.407000000
H    -0.355000000     5.613000000    -6.387000000
H    -0.792000000     4.451000000    -5.521000000
O     2.438000000     5.394000000    -0.560000000
H     2.516000000     4.505000000    -0.214000000
H     3.227000000     5.841000000    -0.253000000
O     0.306000000    -2.557000000    -6.106000000
H     0.698000000    -3.193000000    -5.507000000
H     1.027000000    -1.972000000    -6.340000000
O    -2.950000000     4.092000000     1.189000000
H    -3.217000000     3.508000000     1.899000000
H    -3.769000000     4.333000000     0.757000000
O     2.297000000     4.134000000     5.384000000
H     1.557000000     4.297000000     5.968000000
H     1.907000000     4.086000000     4.511000000
O    -2.461000000    -1.639000000    -5.827000000
H    -1.655000000    -2.096000000    -5.588000000
H    -2.374000000    -0.774000000    -5.427000000
O     1.493000000     8.038000000    -1.720000000
H     2.086000000     8.577000000    -1.196000000
H     1.587000000     7.157000000    -1.358000000
O     4.913000000     1.912000000     3.799000000
H     5.443000000     1.679000000     3.037000000
H     4.624000000     1.073000000     4.156000000
O    -4.487000000    -2.071000000     0.439000000
H    -3.849000000    -2.691000000     0.086000000
H    -4.496000000    -2.248000000     1.380000000
O     0.088000000    -5.380000000    -4.117000000
H    -0.484000000    -5.962000000    -3.616000000
H     0.564000000    -4.883000000    -3.452000000
O    -1.367000000    -6.906000000     4.579000000
H    -0.647000000    -7.515000000     4.415000000
H    -1.073000000    -6.383000000     5.325000000
O     3.433000000    -3.432000000    -0.643000000
H     4.296000000    -3.695000000    -0.962000000
H     3.449000000    -2.475000000    -0.669000000
O     5.829000000     3.460000000     0.358000000
H     5.678000000     4.405000000     0.348000000
H     5.045000000     3.088000000    -0.044000000
O    -2.717000000    -0.109000000     1.713000000
H    -2.010000000     0.235000000     1.167000000
H    -3.385000000    -0.394000000     1.088000000
O     2.953000000    -1.596000000    -3.865000000
H     2.726000000    -2.526000000    -3.852000000
H     2.795000000    -1.323000000    -4.768000000
O     2.491000000    -7.036000000    -1.625000000
H     1.842000000    -6.332000000    -1.631000000
H     3.284000000    -6.634000000    -1.979000000
