161
-3032.54817
C     0.520000000    -0.770000000    -1.196000000
H     0.858000000    -1.263000000    -2.104000000
C    -0.589000000     0.110000000    -1.195000000
H    -1.165000000     0.235000000    -2.109000000
C    -0.876000000     0.786000000    -0.069000000
C    -2.086000000     1.759000000    -0.010000000
H    -1.878000000     2.423000000     0.832000000
H    -2.116000000     2.358000000    -0.922000000
H    -2.994000000     1.248000000     0.315000000
C    -0.272000000     0.552000000     1.133000000
H    -0.555000000     1.051000000     2.056000000
C     0.807000000    -0.348000000     1.116000000
H     1.211000000    -0.531000000     2.108000000
C     1.192000000    -1.008000000    -0.044000000
C     2.341000000    -1.925000000    -0.001000000
O     2.802000000    -2.232000000     1.083000000
O     2.799000000    -2.440000000    -1.000000000
O    -2.705000000     1.878000000     3.404000000
H    -3.071000000     1.012000000     3.580000000
H    -2.558000000     1.889000000     2.458000000
O    -1.319000000     1.412000000    -5.048000000
H    -0.803000000     1.442000000    -5.853000000
H    -1.732000000     0.548000000    -5.061000000
O     1.611000000     3.921000000     4.022000000
H     2.200000000     3.409000000     3.468000000
H     2.162000000     4.220000000     4.746000000
O     4.776000000    -3.840000000     4.604000000
H     4.247000000    -3.099000000     4.310000000
H     5.562000000    -3.441000000     4.976000000
O    -2.462000000    -3.408000000    -2.767000000
H    -1.673000000    -3.141000000    -3.239000000
H    -2.369000000    -3.010000000    -1.901000000
O    -4.798000000    -2.477000000    -0.224000000
H    -5.136000000    -1.836000000     0.402000000
H    -3.847000000    -2.385000000    -0.172000000
O    -4.004000000    -0.329000000     4.171000000
H    -4.205000000    -0.053000000     5.065000000
H    -3.772000000    -1.254000000     4.252000000
O     5.991000000    -6.445000000    -1.687000000
H     5.691000000    -5.567000000    -1.453000000
H     6.874000000    -6.502000000    -1.321000000
O    -5.578000000    -0.584000000     1.545000000
H    -5.113000000    -0.529000000     2.380000000
H    -6.495000000    -0.429000000     1.771000000
O    -0.203000000    -2.950000000     4.919000000
H     0.238000000    -3.367000000     4.179000000
H     0.486000000    -2.454000000     5.360000000
O     0.968000000    -3.767000000     2.262000000
H     1.634000000    -3.222000000     1.842000000
H     1.428000000    -4.576000000     2.488000000
O    -0.949000000     6.003000000     0.306000000
H    -1.845000000     5.873000000    -0.005000000
H    -0.776000000     5.244000000     0.863000000
O     5.048000000    -3.818000000    -0.859000000
H     4.220000000    -3.345000000    -0.774000000
H     5.607000000    -3.232000000    -1.370000000
O     2.055000000    -2.326000000     6.895000000
H     2.216000000    -1.483000000     6.470000000
H     1.357000000    -2.147000000     7.525000000
O    -1.942000000     5.980000000    -4.118000000
H    -2.790000000     5.586000000    -3.912000000
H    -1.330000000     5.244000000    -4.120000000
O    -4.274000000     3.627000000     4.637000000
H    -5.184000000     3.355000000     4.763000000
H    -3.869000000     2.899000000     4.166000000
O    -0.930000000     4.446000000     2.676000000
H    -0.178000000     4.733000000     3.194000000
H    -1.156000000     3.588000000     3.036000000
O    -4.533000000     5.077000000    -3.249000000
H    -5.241000000     5.645000000    -3.553000000
H    -4.927000000     4.556000000    -2.550000000
O    -4.644000000     5.599000000     2.418000000
H    -4.192000000     5.687000000     1.579000000
H    -4.111000000     4.976000000     2.912000000
O    -1.234000000     2.224000000     5.924000000
H    -1.796000000     1.538000000     5.562000000
H    -0.775000000     2.584000000     5.165000000
O    -0.424000000     3.705000000    -3.907000000
H    -0.570000000     2.820000000    -4.241000000
H     0.154000000     3.584000000    -3.153000000
O    -5.575000000     3.682000000    -1.111000000
H    -5.444000000     2.802000000    -0.759000000
H    -6.447000000     3.935000000    -0.808000000
O     2.477000000    -1.814000000    -4.964000000
H     3.097000000    -2.095000000    -4.291000000
H     2.640000000    -0.876000000    -5.064000000
O    -3.913000000    -0.406000000    -2.888000000
H    -3.046000000    -0.449000000    -3.291000000
H    -4.155000000    -1.321000000    -2.742000000
O     1.784000000    -0.098000000     5.296000000
H     2.482000000     0.389000000     4.858000000
H     1.419000000     0.522000000     5.927000000
O     4.270000000     1.051000000     0.609000000
H     5.194000000     1.100000000     0.855000000
H     4.251000000     0.439000000    -0.127000000
O     3.525000000    -1.715000000     3.533000000
H     3.349000000    -1.926000000     2.616000000
H     2.711000000    -1.323000000     3.849000000
O     5.612000000    -3.342000000    -4.296000000
H     5.896000000    -2.660000000    -3.687000000
H     5.665000000    -2.931000000    -5.158000000
O     3.371000000     1.292000000     3.618000000
H     4.296000000     1.529000000     3.689000000
H     3.243000000     1.104000000     2.688000000
O    -1.702000000    -4.440000000     1.294000000
H    -0.949000000    -3.954000000     1.630000000
H    -1.698000000    -5.260000000     1.788000000
O     4.838000000    -4.916000000     1.727000000
H     5.071000000    -4.529000000     0.883000000
H     4.142000000    -4.351000000     2.065000000
O     2.685000000    -5.283000000     3.893000000
H     2.957000000    -6.069000000     3.419000000
H     3.502000000    -4.901000000     4.212000000
O    -5.505000000     0.782000000    -0.890000000
H    -4.769000000     0.388000000    -1.358000000
H    -5.714000000     0.154000000    -0.198000000
O    -2.331000000    -1.130000000    -5.045000000
H    -2.883000000    -1.602000000    -5.669000000
H    -1.475000000    -1.552000000    -5.116000000
O    -0.039000000    -6.403000000    -2.452000000
H     0.821000000    -5.998000000    -2.341000000
H    -0.461000000    -6.308000000    -1.598000000
O     4.349000000    -1.304000000    -2.666000000
H     5.086000000    -1.594000000    -2.129000000
H     3.573000000    -1.602000000    -2.190000000
O    -3.809000000     5.690000000    -0.072000000
H    -4.412000000     6.372000000    -0.369000000
H    -4.162000000     4.880000000    -0.440000000
O     2.456000000    -5.167000000    -1.835000000
H     2.314000000    -4.224000000    -1.750000000
H     3.258000000    -5.244000000    -2.351000000
O     0.130000000    -2.963000000    -4.409000000
H     0.903000000    -2.422000000    -4.572000000
H     0.045000000    -3.501000000    -5.197000000
O     5.937000000    -0.207000000     3.390000000
H     5.103000000    -0.603000000     3.646000000
H     5.986000000     0.600000000     3.902000000
O     6.998000000    -2.168000000    -1.792000000
H     7.243000000    -1.313000000    -2.144000000
H     7.711000000    -2.394000000    -1.194000000
O    -5.571000000     1.151000000    -4.433000000
H    -5.028000000     0.645000000    -3.829000000
H    -5.697000000     0.573000000    -5.186000000
O     7.843000000    -2.886000000     2.494000000
H     7.072000000    -2.420000000     2.171000000
H     7.904000000    -2.638000000     3.416000000
O     4.332000000    -5.667000000    -3.666000000
H     4.976000000    -6.315000000    -3.379000000
H     4.822000000    -4.846000000    -3.713000000
O    -2.226000000     5.860000000     4.933000000
H    -2.818000000     5.137000000     5.141000000
H    -1.977000000     5.712000000     4.021000000
O     1.117000000     3.565000000    -1.465000000
H     1.597000000     3.896000000    -0.706000000
H     0.731000000     2.742000000    -1.165000000
O    -2.085000000    -2.498000000    -0.310000000
H    -1.931000000    -3.192000000     0.331000000
H    -1.383000000    -1.866000000    -0.153000000
O     2.773000000    -7.631000000    -0.487000000
H     2.744000000    -6.716000000    -0.768000000
H     2.119000000    -8.069000000    -1.032000000
