161
-3011.66009
C     0.509000000    -1.425000000     0.116000000
H     0.862000000    -2.452000000     0.076000000
C     1.162000000    -0.311000000    -0.450000000
H     2.128000000    -0.538000000    -0.895000000
C     0.616000000     0.945000000    -0.435000000
C     1.295000000     2.107000000    -1.195000000
H     1.605000000     1.894000000    -2.220000000
H     0.690000000     3.012000000    -1.105000000
H     2.216000000     2.325000000    -0.649000000
C    -0.594000000     1.129000000     0.133000000
H    -0.969000000     2.148000000     0.173000000
C    -1.280000000     0.080000000     0.711000000
H    -2.308000000     0.310000000     0.977000000
C    -0.717000000    -1.173000000     0.683000000
C    -1.525000000    -2.353000000     1.195000000
O    -2.587000000    -2.191000000     1.667000000
O    -1.109000000    -3.507000000     1.214000000
O     4.723000000     5.513000000    -0.276000000
H     5.327000000     5.559000000    -1.017000000
H     3.854000000     5.492000000    -0.677000000
O    -1.111000000    -5.621000000    -0.545000000
H    -1.391000000    -4.776000000    -0.191000000
H    -1.300000000    -6.247000000     0.154000000
O    -5.184000000    -3.624000000     4.749000000
H    -5.511000000    -3.928000000     3.902000000
H    -4.904000000    -2.723000000     4.589000000
O    -6.995000000    -2.998000000     1.818000000
H    -7.511000000    -2.371000000     1.311000000
H    -7.635000000    -3.440000000     2.375000000
O    -0.391000000     7.772000000    -2.361000000
H     0.433000000     7.291000000    -2.436000000
H    -0.174000000     8.663000000    -2.638000000
O    -4.854000000    -5.366000000    -1.616000000
H    -5.725000000    -5.523000000    -1.251000000
H    -4.510000000    -4.631000000    -1.109000000
O     3.675000000     5.006000000    -4.662000000
H     4.218000000     4.970000000    -5.450000000
H     3.022000000     5.680000000    -4.851000000
O     0.659000000    -4.295000000     2.905000000
H     0.993000000    -3.447000000     3.198000000
H    -0.027000000    -4.077000000     2.274000000
O     3.706000000    -2.560000000    -3.482000000
H     3.511000000    -2.460000000    -2.550000000
H     4.158000000    -3.402000000    -3.543000000
O     1.560000000    -7.254000000     3.636000000
H     0.909000000    -6.673000000     3.243000000
H     1.345000000    -7.258000000     4.569000000
O     1.626000000    -5.696000000    -1.356000000
H     1.709000000    -6.080000000    -2.228000000
H     0.687000000    -5.543000000    -1.249000000
O    -6.069000000    -5.418000000     2.621000000
H    -6.717000000    -4.915000000     2.128000000
H    -5.237000000    -5.228000000     2.187000000
O    -1.842000000    -3.289000000    -2.024000000
H    -1.035000000    -3.800000000    -2.086000000
H    -2.294000000    -3.453000000    -2.851000000
O    -1.459000000     3.830000000     2.708000000
H    -2.217000000     3.728000000     2.133000000
H    -1.827000000     3.837000000     3.592000000
O     5.805000000    -0.788000000    -0.963000000
H     5.107000000    -1.181000000    -0.440000000
H     5.807000000     0.134000000    -0.706000000
O    -2.574000000     4.789000000    -1.945000000
H    -2.848000000     4.743000000    -1.030000000
H    -3.274000000     4.350000000    -2.428000000
O     1.882000000    -1.548000000    -5.554000000
H     0.942000000    -1.648000000    -5.406000000
H     2.285000000    -1.803000000    -4.724000000
O     3.999000000     4.026000000     1.709000000
H     4.101000000     4.641000000     2.436000000
H     4.236000000     4.533000000     0.933000000
O    -1.342000000    -7.795000000     1.152000000
H    -1.084000000    -8.146000000     2.004000000
H    -1.427000000    -8.566000000     0.591000000
O    -3.560000000    -4.897000000     1.955000000
H    -2.938000000    -4.179000000     1.838000000
H    -3.076000000    -5.679000000     1.688000000
O     3.592000000     1.817000000     3.285000000
H     4.302000000     1.184000000     3.174000000
H     3.727000000     2.453000000     2.582000000
O     4.093000000    -1.383000000     1.247000000
H     4.607000000    -0.688000000     1.657000000
H     3.790000000    -1.921000000     1.978000000
O     0.086000000     4.881000000     0.703000000
H     0.404000000     4.021000000     0.430000000
H    -0.459000000     4.703000000     1.469000000
O    -5.532000000     1.328000000     3.068000000
H    -4.828000000     1.389000000     3.713000000
H    -5.333000000     0.536000000     2.568000000
O    -4.780000000    -1.450000000     2.630000000
H    -3.960000000    -1.708000000     2.209000000
H    -5.402000000    -2.134000000     2.381000000
O     3.842000000    -3.137000000     3.409000000
H     3.401000000    -3.611000000     4.114000000
H     4.495000000    -2.598000000     3.855000000
O     4.458000000    -5.406000000    -2.497000000
H     4.092000000    -6.265000000    -2.706000000
H     3.761000000    -4.960000000    -2.014000000
O     3.379000000    -3.324000000    -0.864000000
H     3.535000000    -2.731000000    -0.130000000
H     2.772000000    -3.979000000    -0.519000000
O    -3.714000000     1.409000000    -0.847000000
H    -3.796000000     1.726000000    -1.746000000
H    -3.212000000     0.598000000    -0.924000000
O     4.419000000     3.435000000    -2.336000000
H     4.914000000     2.807000000    -2.862000000
H     4.162000000     4.117000000    -2.956000000
O    -1.946000000    -2.648000000     4.315000000
H    -1.048000000    -2.323000000     4.380000000
H    -2.252000000    -2.337000000     3.463000000
O     2.478000000     2.536000000    -7.531000000
H     2.973000000     3.044000000    -8.173000000
H     2.850000000     2.788000000    -6.687000000
O     0.085000000     7.782000000     1.022000000
H     0.187000000     6.833000000     1.090000000
H     0.933000000     8.134000000     1.293000000
O    -4.240000000    -2.654000000    -0.739000000
H    -3.557000000    -2.705000000    -1.408000000
H    -3.777000000    -2.795000000     0.086000000
O     1.507000000     6.145000000    -1.886000000
H     0.981000000     5.575000000    -2.447000000
H     1.201000000     5.956000000    -0.999000000
O     1.588000000     6.412000000    -5.391000000
H     1.157000000     5.777000000    -4.818000000
H     1.165000000     7.246000000    -5.185000000
O    -1.775000000     0.266000000     4.031000000
H    -1.992000000     0.356000000     3.103000000
H    -0.997000000    -0.292000000     4.041000000
O    -0.212000000     4.271000000    -3.310000000
H    -0.926000000     4.364000000    -2.680000000
H    -0.630000000     3.918000000    -4.096000000
O     1.353000000     2.727000000     4.621000000
H     0.871000000     2.559000000     3.811000000
H     2.258000000     2.495000000     4.414000000
O     5.674000000     2.039000000    -0.314000000
H     5.316000000     2.393000000    -1.128000000
H     5.518000000     2.726000000     0.335000000
O    -3.398000000     3.674000000     0.642000000
H    -3.321000000     2.897000000     0.088000000
H    -4.321000000     3.920000000     0.583000000
O    -2.081000000    -0.288000000    -2.252000000
H    -1.672000000     0.041000000    -3.053000000
H    -1.537000000    -1.033000000    -1.995000000
O    -1.425000000    -5.449000000     4.813000000
H    -1.943000000    -4.646000000     4.871000000
H    -0.817000000    -5.290000000     4.091000000
O     5.773000000     1.660000000    -4.215000000
H     5.166000000     0.968000000    -4.478000000
H     5.752000000     2.286000000    -4.939000000
O    -4.107000000    -0.418000000     5.038000000
H    -3.199000000    -0.232000000     4.796000000
H    -4.495000000    -0.786000000     4.244000000
O    -1.144000000     0.776000000    -4.350000000
H    -0.441000000     1.424000000    -4.397000000
H    -0.935000000     0.146000000    -5.040000000
O     1.050000000    -1.459000000     3.875000000
H     1.254000000    -1.004000000     3.058000000
H     1.671000000    -1.103000000     4.509000000
O    -6.401000000    -1.296000000    -2.028000000
H    -5.753000000    -0.874000000    -2.592000000
H    -5.900000000    -1.596000000    -1.270000000
