161
-3041.80333
C     0.730000000    -1.274000000    -0.206000000
H     1.001000000    -2.307000000    -0.411000000
C    -0.583000000    -0.943000000    -0.517000000
H    -1.178000000    -1.716000000    -0.996000000
C    -1.170000000     0.264000000    -0.305000000
C    -2.544000000     0.535000000    -0.863000000
H    -2.867000000     1.553000000    -0.636000000
H    -2.532000000     0.335000000    -1.936000000
H    -3.330000000    -0.014000000    -0.341000000
C    -0.324000000     1.330000000     0.128000000
H    -0.743000000     2.311000000     0.340000000
C     0.982000000     0.994000000     0.544000000
H     1.589000000     1.730000000     1.067000000
C     1.465000000    -0.331000000     0.459000000
C     2.881000000    -0.684000000     0.970000000
O     3.306000000     0.031000000     1.859000000
O     3.309000000    -1.811000000     0.846000000
O     7.239000000     0.635000000    -0.948000000
H     6.471000000     0.983000000    -0.497000000
H     7.518000000    -0.107000000    -0.411000000
O     2.855000000     0.774000000    -3.335000000
H     1.996000000     1.151000000    -3.143000000
H     2.828000000     0.582000000    -4.272000000
O     4.604000000     2.469000000    -2.117000000
H     5.039000000     2.708000000    -2.936000000
H     3.953000000     1.817000000    -2.373000000
O     6.133000000    -5.210000000     2.842000000
H     6.587000000    -6.052000000     2.822000000
H     5.842000000    -5.073000000     1.941000000
O     4.319000000     5.344000000     2.243000000
H     4.977000000     5.312000000     2.937000000
H     4.577000000     4.649000000     1.637000000
O    -6.913000000     0.235000000    -1.327000000
H    -7.333000000     0.589000000    -2.110000000
H    -6.453000000     0.981000000    -0.943000000
O     3.114000000     0.131000000     6.627000000
H     2.300000000    -0.230000000     6.277000000
H     3.378000000     0.792000000     5.987000000
O    -5.564000000     0.848000000     3.839000000
H    -4.827000000     0.477000000     3.354000000
H    -6.315000000     0.314000000     3.578000000
O    -3.636000000     0.846000000    -6.478000000
H    -4.312000000     1.374000000    -6.055000000
H    -4.106000000     0.339000000    -7.140000000
O    -5.844000000     2.309000000     0.758000000
H    -5.430000000     2.559000000     1.584000000
H    -6.724000000     2.026000000     1.006000000
O    -0.795000000    -4.343000000     0.860000000
H    -0.401000000    -4.532000000     0.008000000
H    -0.062000000    -4.057000000     1.405000000
O    -4.908000000     3.397000000    -2.043000000
H    -5.345000000     3.157000000    -1.226000000
H    -3.974000000     3.354000000    -1.836000000
O     2.104000000     1.288000000     3.903000000
H     2.692000000     0.927000000     3.239000000
H     2.615000000     1.978000000     4.326000000
O    -2.055000000     7.407000000    -0.181000000
H    -2.589000000     7.634000000    -0.942000000
H    -2.004000000     6.451000000    -0.200000000
O    -7.714000000    -2.467000000    -1.355000000
H    -7.563000000    -1.527000000    -1.449000000
H    -7.419000000    -2.841000000    -2.186000000
O     0.277000000     2.127000000    -3.321000000
H    -0.117000000     2.075000000    -4.191000000
H    -0.281000000     1.575000000    -2.772000000
O     4.099000000    -2.834000000    -1.578000000
H     4.769000000    -2.340000000    -2.051000000
H     4.018000000    -2.383000000    -0.737000000
O    -3.120000000     0.169000000     2.841000000
H    -2.362000000     0.727000000     2.665000000
H    -2.956000000    -0.625000000     2.332000000
O     6.874000000    -1.100000000     3.728000000
H     7.819000000    -1.221000000     3.827000000
H     6.570000000    -0.868000000     4.605000000
O     1.193000000     4.628000000     1.269000000
H     1.017000000     4.160000000     0.452000000
H     2.077000000     4.978000000     1.159000000
O    -3.118000000    -3.901000000    -2.391000000
H    -3.811000000    -3.504000000    -1.862000000
H    -2.412000000    -4.074000000    -1.769000000
O     0.309000000     7.106000000     2.395000000
H    -0.491000000     6.873000000     2.866000000
H     0.492000000     6.346000000     1.844000000
O    -0.915000000     1.751000000     3.275000000
H    -1.161000000     2.409000000     3.925000000
H     0.037000000     1.828000000     3.204000000
O     2.984000000     4.036000000     4.345000000
H     2.195000000     4.499000000     4.627000000
H     3.216000000     4.447000000     3.512000000
O     1.610000000    -6.658000000     2.229000000
H     2.341000000    -7.070000000     2.691000000
H     1.611000000    -5.752000000     2.539000000
O     2.767000000    -4.597000000     4.888000000
H     2.549000000    -4.079000000     4.113000000
H     3.635000000    -4.289000000     5.146000000
O    -2.326000000    -6.264000000     1.615000000
H    -1.729000000    -6.615000000     2.276000000
H    -1.891000000    -5.472000000     1.297000000
O     0.157000000    -2.552000000    -3.948000000
H    -0.740000000    -2.720000000    -3.660000000
H     0.615000000    -2.273000000    -3.156000000
O    -1.078000000     1.615000000    -5.993000000
H    -0.717000000     2.123000000    -6.719000000
H    -2.012000000     1.547000000    -6.189000000
O    -1.993000000     3.909000000    -2.055000000
H    -2.200000000     4.529000000    -2.755000000
H    -1.352000000     3.314000000    -2.445000000
O    -2.975000000    -2.521000000     1.739000000
H    -2.216000000    -3.013000000     1.426000000
H    -3.468000000    -2.313000000     0.945000000
O    -3.998000000    -3.095000000    -4.986000000
H    -3.441000000    -2.340000000    -5.177000000
H    -3.562000000    -3.536000000    -4.257000000
O     4.598000000     2.285000000     5.495000000
H     5.484000000     2.447000000     5.172000000
H     4.065000000     2.967000000     5.087000000
O    -2.198000000     4.744000000     0.859000000
H    -2.271000000     4.243000000     0.047000000
H    -1.390000000     4.428000000     1.264000000
O     5.913000000     1.251000000     1.633000000
H     6.373000000     0.436000000     1.832000000
H     4.986000000     1.031000000     1.722000000
O     1.479000000    -3.350000000     2.360000000
H     1.035000000    -2.759000000     2.967000000
H     2.167000000    -2.815000000     1.964000000
O     3.747000000    -2.173000000     4.046000000
H     4.496000000    -1.903000000     4.577000000
H     3.847000000    -1.689000000     3.227000000
O     1.336000000     3.805000000    -1.176000000
H     1.716000000     4.608000000    -1.534000000
H     1.115000000     3.281000000    -1.946000000
O    -5.004000000    -3.195000000    -0.625000000
H    -5.328000000    -3.833000000     0.012000000
H    -5.793000000    -2.770000000    -0.961000000
O     2.994000000    -5.387000000    -2.505000000
H     3.432000000    -4.575000000    -2.247000000
H     3.240000000    -6.018000000    -1.829000000
O     0.296000000    -5.068000000    -1.607000000
H     1.184000000    -4.747000000    -1.766000000
H     0.215000000    -5.837000000    -2.171000000
O     5.172000000     3.702000000     0.237000000
H     4.770000000     3.463000000    -0.599000000
H     5.112000000     2.907000000     0.767000000
O     0.538000000    -0.306000000     5.525000000
H     0.915000000     0.306000000     4.893000000
H     0.329000000    -1.085000000     5.008000000
O     5.179000000    -4.921000000    -0.021000000
H     4.472000000    -5.516000000    -0.270000000
H     4.900000000    -4.067000000    -0.353000000
O     7.490000000    -2.535000000    -0.886000000
H     7.599000000    -3.486000000    -0.897000000
H     6.852000000    -2.376000000    -0.191000000
O    -3.312000000     5.822000000     2.998000000
H    -2.802000000     5.259000000     3.580000000
H    -3.091000000     5.519000000     2.117000000
O    -2.060000000    -1.399000000    -5.608000000
H    -2.601000000    -0.612000000    -5.677000000
H    -1.324000000    -1.236000000    -6.198000000
O     6.028000000    -1.683000000     1.277000000
H     6.341000000    -1.836000000     2.168000000
H     5.076000000    -1.626000000     1.364000000
