161
-3007.25762
C     0.601000000    -1.321000000    -0.181000000
H     0.781000000    -2.391000000    -0.230000000
C    -0.274000000    -0.689000000    -1.088000000
H    -0.662000000    -1.221000000    -1.953000000
C    -0.711000000     0.627000000    -0.838000000
C    -1.678000000     1.375000000    -1.751000000
H    -1.802000000     0.816000000    -2.681000000
H    -2.690000000     1.285000000    -1.352000000
H    -1.437000000     2.436000000    -1.845000000
C    -0.207000000     1.220000000     0.289000000
H    -0.525000000     2.232000000     0.526000000
C     0.605000000     0.594000000     1.260000000
H     0.856000000     1.103000000     2.187000000
C     0.988000000    -0.739000000     1.018000000
C     1.795000000    -1.582000000     2.013000000
O     1.893000000    -1.215000000     3.076000000
O     2.473000000    -2.532000000     1.552000000
O    -3.919000000    -1.397000000    -6.317000000
H    -3.136000000    -1.055000000    -6.748000000
H    -3.993000000    -0.884000000    -5.512000000
O     1.677000000    -6.812000000    -0.646000000
H     0.883000000    -6.572000000    -0.168000000
H     1.358000000    -7.266000000    -1.427000000
O     4.525000000    -6.919000000     1.560000000
H     4.468000000    -6.532000000     0.687000000
H     4.480000000    -7.863000000     1.408000000
O    -6.567000000     1.286000000     1.421000000
H    -6.010000000     0.513000000     1.333000000
H    -6.469000000     1.747000000     0.587000000
O    -4.386000000     3.108000000    -5.238000000
H    -4.792000000     3.972000000    -5.309000000
H    -4.236000000     2.839000000    -6.145000000
O    -0.142000000    -3.439000000     6.026000000
H     0.524000000    -2.755000000     5.959000000
H     0.185000000    -4.147000000     5.471000000
O    -6.664000000     3.047000000    -0.431000000
H    -6.438000000     3.610000000    -1.171000000
H    -7.617000000     2.972000000    -0.469000000
O    -0.843000000    -4.390000000     1.088000000
H    -0.423000000    -4.997000000     0.479000000
H    -0.439000000    -4.582000000     1.934000000
O    -3.924000000     3.986000000     0.705000000
H    -4.877000000     3.940000000     0.623000000
H    -3.630000000     4.359000000    -0.126000000
O     1.583000000     0.484000000     5.082000000
H     1.655000000    -0.093000000     4.322000000
H     1.808000000     1.352000000     4.747000000
O    -6.397000000     0.825000000    -3.332000000
H    -6.655000000     1.056000000    -4.224000000
H    -6.304000000     1.666000000    -2.884000000
O     1.465000000     2.731000000    -2.670000000
H     0.920000000     2.304000000    -2.009000000
H     0.874000000     2.886000000    -3.406000000
O     3.655000000    -2.142000000    -0.928000000
H     3.813000000    -1.205000000    -1.040000000
H     3.475000000    -2.245000000     0.006000000
O    -0.143000000     3.616000000    -4.771000000
H    -0.094000000     4.330000000    -5.407000000
H    -0.208000000     2.824000000    -5.304000000
O    -0.332000000    -2.367000000    -5.069000000
H     0.257000000    -1.995000000    -5.725000000
H     0.247000000    -2.649000000    -4.361000000
O    -3.574000000     1.522000000     1.957000000
H    -3.820000000     2.397000000     1.658000000
H    -3.847000000     0.940000000     1.247000000
O     1.352000000     3.468000000     2.964000000
H     0.407000000     3.420000000     3.110000000
H     1.447000000     4.025000000     2.191000000
O    -2.753000000    -3.203000000    -1.247000000
H    -2.789000000    -3.296000000    -0.295000000
H    -2.022000000    -3.760000000    -1.514000000
O     2.512000000     5.304000000    -3.149000000
H     2.178000000     4.447000000    -2.880000000
H     2.734000000     5.742000000    -2.328000000
O    -1.329000000     2.925000000     3.248000000
H    -1.789000000     3.128000000     4.063000000
H    -1.767000000     2.142000000     2.915000000
O     1.720000000     4.463000000     5.846000000
H     0.969000000     4.199000000     6.377000000
H     1.846000000     3.740000000     5.232000000
O     2.400000000    -7.536000000     3.298000000
H     3.200000000    -7.485000000     2.775000000
H     1.879000000    -6.785000000     3.014000000
O     2.299000000    -2.366000000     5.634000000
H     2.292000000    -1.711000000     4.936000000
H     2.963000000    -2.053000000     6.249000000
O     6.656000000    -1.337000000     5.057000000
H     6.064000000    -1.812000000     4.474000000
H     6.717000000    -1.889000000     5.837000000
O     2.878000000     0.283000000    -2.976000000
H     2.385000000     1.095000000    -2.858000000
H     3.693000000     0.426000000    -2.495000000
O     2.441000000    -0.127000000    -5.573000000
H     2.203000000    -0.412000000    -4.690000000
H     3.036000000     0.610000000    -5.434000000
O    -2.458000000     5.192000000    -4.163000000
H    -1.584000000     4.817000000    -4.276000000
H    -3.055000000     4.469000000    -4.356000000
O    -3.089000000     5.365000000    -1.401000000
H    -3.694000000     6.106000000    -1.366000000
H    -2.736000000     5.386000000    -2.291000000
O    -4.850000000    -0.371000000     0.363000000
H    -4.763000000    -0.650000000    -0.548000000
H    -4.874000000    -1.187000000     0.862000000
O    -4.635000000    -2.304000000    -3.004000000
H    -4.394000000    -1.389000000    -3.143000000
H    -3.883000000    -2.684000000    -2.551000000
O    -0.152000000    -0.094000000     7.177000000
H     0.358000000     0.092000000     6.389000000
H     0.330000000     0.339000000     7.882000000
O     3.621000000     2.112000000     4.571000000
H     4.524000000     2.395000000     4.713000000
H     3.186000000     2.878000000     4.196000000
O    -0.789000000     7.640000000     0.952000000
H     0.067000000     7.379000000     1.293000000
H    -1.241000000     6.814000000     0.782000000
O     3.934000000     0.798000000     1.891000000
H     4.031000000     0.063000000     2.496000000
H     3.003000000     1.017000000     1.927000000
O     1.543000000    -4.723000000     2.604000000
H     2.439000000    -5.001000000     2.793000000
H     1.642000000    -3.875000000     2.170000000
O     4.659000000    -2.189000000     3.121000000
H     4.656000000    -2.933000000     3.723000000
H     3.770000000    -2.163000000     2.768000000
O     1.708000000     5.242000000     0.633000000
H     2.209000000     5.987000000     0.966000000
H     1.766000000     5.321000000    -0.319000000
O     1.727000000    -2.828000000    -3.107000000
H     2.100000000    -2.036000000    -2.718000000
H     2.479000000    -3.287000000    -3.483000000
O    -1.797000000    -1.833000000     1.942000000
H    -1.622000000    -2.682000000     1.536000000
H    -1.450000000    -1.194000000     1.320000000
O    -0.075000000    -4.704000000    -1.926000000
H     0.584000000    -4.042000000    -2.131000000
H     0.202000000    -5.478000000    -2.416000000
O     4.150000000     3.654000000     1.773000000
H     3.812000000     3.889000000     0.909000000
H     4.228000000     2.700000000     1.748000000
O    -1.422000000     0.102000000     4.160000000
H    -0.568000000     0.324000000     3.788000000
H    -1.983000000    -0.048000000     3.400000000
O     3.846000000    -5.230000000    -0.931000000
H     3.552000000    -4.405000000    -1.317000000
H     3.043000000    -5.736000000    -0.805000000
O    -2.087000000    -3.271000000     4.352000000
H    -1.447000000    -2.999000000     5.011000000
H    -1.857000000    -2.767000000     3.572000000
O    -2.787000000     5.768000000     2.700000000
H    -2.607000000     5.125000000     2.014000000
H    -3.617000000     5.485000000     3.083000000
O     4.803000000     0.442000000    -0.803000000
H     5.654000000     0.860000000    -0.935000000
H     4.595000000     0.605000000     0.117000000
O    -3.879000000     0.256000000    -4.148000000
H    -4.782000000     0.436000000    -3.886000000
H    -3.529000000     1.110000000    -4.401000000
O     5.684000000    -3.783000000     0.885000000
H     5.165000000    -4.397000000     0.364000000
H     5.034000000    -3.235000000     1.325000000
