161
-3028.90885
C     0.369000000    -1.379000000    -0.361000000
H     0.500000000    -2.421000000    -0.642000000
C    -0.926000000    -0.924000000    -0.070000000
H    -1.715000000    -1.671000000    -0.109000000
C    -1.063000000     0.370000000     0.333000000
C    -2.481000000     0.834000000     0.577000000
H    -3.056000000    -0.073000000     0.779000000
H    -2.526000000     1.400000000     1.510000000
H    -2.887000000     1.351000000    -0.294000000
C    -0.048000000     1.270000000     0.432000000
H    -0.215000000     2.270000000     0.826000000
C     1.210000000     0.824000000     0.014000000
H     1.917000000     1.648000000    -0.041000000
C     1.443000000    -0.471000000    -0.309000000
C     2.816000000    -0.913000000    -0.667000000
O     3.682000000    -0.138000000    -0.732000000
O     2.972000000    -1.985000000    -1.239000000
O     1.932000000     3.518000000    -2.537000000
H     1.172000000     3.727000000    -1.994000000
H     1.691000000     3.820000000    -3.412000000
O    -5.306000000     0.748000000    -1.997000000
H    -5.860000000     1.516000000    -2.139000000
H    -5.863000000     0.005000000    -2.228000000
O     3.073000000    -6.589000000     0.209000000
H     2.354000000    -6.068000000     0.568000000
H     3.469000000    -6.025000000    -0.455000000
O    -5.799000000    -1.299000000     1.908000000
H    -6.506000000    -1.794000000     1.492000000
H    -5.005000000    -1.600000000     1.467000000
O    -6.135000000     0.011000000     4.588000000
H    -5.326000000    -0.097000000     5.088000000
H    -5.843000000     0.166000000     3.690000000
O    -0.807000000     7.688000000     0.637000000
H    -0.593000000     8.143000000    -0.177000000
H    -0.531000000     6.784000000     0.485000000
O     8.802000000    -1.454000000    -1.197000000
H     8.015000000    -0.933000000    -1.353000000
H     8.514000000    -2.361000000    -1.305000000
O     0.065000000    -0.476000000    -3.501000000
H     0.887000000    -0.669000000    -3.952000000
H     0.277000000     0.254000000    -2.919000000
O     3.756000000     1.268000000    -2.923000000
H     3.885000000     0.759000000    -2.123000000
H     3.050000000     1.877000000    -2.707000000
O     7.161000000    -2.580000000    -3.725000000
H     6.348000000    -2.077000000    -3.778000000
H     7.520000000    -2.549000000    -4.611000000
O     2.275000000    -3.909000000     0.600000000
H     2.534000000    -3.372000000    -0.149000000
H     2.313000000    -3.312000000     1.347000000
O     1.480000000    -3.537000000    -2.881000000
H     1.981000000    -2.951000000    -2.314000000
H     1.789000000    -3.337000000    -3.765000000
O    -1.323000000    -3.128000000    -3.181000000
H    -0.587000000    -3.733000000    -3.086000000
H    -0.918000000    -2.260000000    -3.194000000
O    -1.685000000     5.420000000     3.277000000
H    -1.568000000     6.346000000     3.066000000
H    -2.126000000     5.423000000     4.127000000
O    -3.170000000    -2.298000000     4.051000000
H    -3.467000000    -3.208000000     4.060000000
H    -2.347000000    -2.320000000     3.562000000
O     3.140000000     5.332000000     1.002000000
H     3.786000000     4.742000000     0.613000000
H     2.425000000     4.758000000     1.275000000
O    -3.188000000    -0.556000000    -3.192000000
H    -2.310000000    -0.510000000    -2.815000000
H    -3.776000000    -0.441000000    -2.446000000
O    -0.856000000    -2.465000000     2.545000000
H    -0.799000000    -1.883000000     1.787000000
H    -0.908000000    -3.344000000     2.168000000
O    -0.722000000    -0.526000000     4.558000000
H    -0.687000000    -1.227000000     3.908000000
H    -0.803000000     0.276000000     4.042000000
O     4.316000000    -5.095000000    -2.087000000
H     3.554000000    -4.565000000    -2.321000000
H     4.602000000    -5.483000000    -2.914000000
O    -3.546000000     0.091000000     5.550000000
H    -3.446000000    -0.599000000     4.895000000
H    -3.093000000     0.846000000     5.173000000
O     4.651000000    -1.536000000    -3.459000000
H     4.076000000    -0.893000000    -3.874000000
H     4.234000000    -1.721000000    -2.617000000
O     6.921000000     0.946000000    -3.666000000
H     6.179000000     0.386000000    -3.437000000
H     7.029000000     1.522000000    -2.909000000
O     0.476000000     5.883000000    -1.017000000
H     0.726000000     6.597000000    -1.603000000
H     1.267000000     5.700000000    -0.511000000
O    -3.934000000     6.517000000    -0.281000000
H    -3.566000000     7.267000000     0.185000000
H    -3.657000000     5.757000000     0.231000000
O     5.846000000    -3.757000000     0.767000000
H     5.932000000    -4.071000000    -0.133000000
H     5.087000000    -3.174000000     0.745000000
O    -5.612000000     3.654000000     1.867000000
H    -6.344000000     4.058000000     1.401000000
H    -5.691000000     2.720000000     1.675000000
O    -4.108000000    -2.488000000     0.295000000
H    -4.119000000    -2.424000000    -0.660000000
H    -3.979000000    -3.420000000     0.471000000
O     0.825000000    -6.002000000     3.077000000
H     1.113000000    -5.279000000     2.520000000
H    -0.010000000    -5.706000000     3.440000000
O    -4.367000000    -3.144000000    -3.016000000
H    -3.495000000    -2.769000000    -2.885000000
H    -4.203000000    -3.994000000    -3.423000000
O    -2.976000000     4.263000000     1.126000000
H    -2.381000000     4.501000000     1.837000000
H    -3.627000000     3.695000000     1.539000000
O    -5.820000000     1.141000000     0.610000000
H    -6.027000000     0.266000000     0.937000000
H    -5.580000000     1.004000000    -0.306000000
O     1.005000000     4.527000000     2.361000000
H     1.263000000     3.672000000     2.706000000
H     0.122000000     4.666000000     2.701000000
O     3.132000000     0.274000000    -5.292000000
H     3.380000000     0.740000000    -6.091000000
H     3.661000000     0.679000000    -4.604000000
O    -1.739000000     5.202000000    -2.971000000
H    -1.316000000     5.259000000    -2.114000000
H    -2.666000000     5.069000000    -2.772000000
O     4.609000000     4.727000000    -2.475000000
H     3.812000000     4.213000000    -2.346000000
H     5.322000000     4.112000000    -2.303000000
O     2.146000000    -2.681000000    -5.591000000
H     2.448000000    -1.776000000    -5.674000000
H     2.490000000    -3.120000000    -6.370000000
O     3.967000000     1.172000000     1.523000000
H     3.738000000     0.471000000     0.913000000
H     4.008000000     0.743000000     2.378000000
O     1.739000000     2.386000000     3.830000000
H     2.106000000     1.859000000     3.120000000
H     1.835000000     1.839000000     4.609000000
O     6.388000000    -0.052000000    -0.302000000
H     6.557000000     0.587000000     0.390000000
H     5.434000000    -0.093000000    -0.363000000
O     2.553000000    -2.070000000     2.834000000
H     1.981000000    -2.358000000     3.546000000
H     3.095000000    -1.384000000     3.225000000
O    -4.220000000     3.735000000    -2.794000000
H    -4.601000000     4.593000000    -2.606000000
H    -4.283000000     3.259000000    -1.967000000
O    -2.067000000     2.275000000     4.421000000
H    -1.796000000     3.188000000     4.320000000
H    -1.454000000     1.913000000     5.060000000
O     8.198000000    -1.866000000     1.578000000
H     8.776000000    -2.356000000     0.993000000
H     7.437000000    -1.652000000     1.038000000
O    -3.629000000     2.099000000    -4.943000000
H    -3.838000000     2.745000000    -4.268000000
H    -3.767000000     1.253000000    -4.516000000
O     5.309000000     3.603000000     0.494000000
H     4.884000000     2.757000000     0.631000000
H     6.000000000     3.634000000     1.156000000
O    -1.571000000    -4.591000000     0.825000000
H    -2.091000000    -5.361000000     1.056000000
H    -0.944000000    -4.911000000     0.177000000
O     7.146000000     2.604000000    -1.343000000
H     6.394000000     2.877000000    -0.818000000
H     7.890000000     3.064000000    -0.954000000
