161
-3052.56152
C     0.739000000    -1.118000000    -0.600000000
H     1.225000000    -1.965000000    -1.078000000
C    -0.645000000    -1.084000000    -0.458000000
H    -1.248000000    -1.812000000    -0.994000000
C    -1.227000000     0.001000000     0.220000000
C    -2.703000000     0.153000000     0.331000000
H    -3.093000000     0.809000000     1.113000000
H    -3.007000000     0.560000000    -0.635000000
H    -3.184000000    -0.827000000     0.334000000
C    -0.431000000     1.076000000     0.732000000
H    -0.920000000     1.986000000     1.071000000
C     0.954000000     1.015000000     0.511000000
H     1.540000000     1.842000000     0.904000000
C     1.561000000    -0.124000000    -0.106000000
C     3.067000000    -0.144000000    -0.361000000
O     3.837000000     0.686000000     0.057000000
O     3.537000000    -1.047000000    -1.048000000
O     1.721000000    -2.153000000    -4.535000000
H     1.360000000    -1.532000000    -3.902000000
H     2.099000000    -2.850000000    -3.999000000
O    -3.900000000    -1.251000000    -3.067000000
H    -4.290000000    -0.494000000    -2.631000000
H    -3.834000000    -1.915000000    -2.381000000
O     2.483000000    -4.433000000    -2.668000000
H     3.033000000    -5.174000000    -2.923000000
H     3.104000000    -3.735000000    -2.459000000
O     7.596000000    -1.533000000    -4.341000000
H     7.391000000    -1.641000000    -5.270000000
H     6.766000000    -1.274000000    -3.941000000
O    -0.817000000    -0.458000000     5.318000000
H    -0.472000000    -0.644000000     4.444000000
H    -1.718000000    -0.779000000     5.293000000
O    -7.622000000     1.926000000    -0.352000000
H    -8.463000000     2.324000000    -0.575000000
H    -7.268000000     2.484000000     0.340000000
O    -3.365000000     4.916000000     1.084000000
H    -3.841000000     5.702000000     1.352000000
H    -2.825000000     4.693000000     1.842000000
O     0.010000000    -5.588000000    -2.909000000
H     0.522000000    -6.397000000    -2.880000000
H     0.662000000    -4.890000000    -2.844000000
O     5.159000000     3.128000000    -3.329000000
H     4.486000000     3.167000000    -2.651000000
H     4.888000000     3.780000000    -3.975000000
O     7.904000000     0.237000000     1.520000000
H     7.423000000     0.745000000     0.866000000
H     7.308000000    -0.474000000     1.756000000
O    -3.667000000    -3.333000000    -1.172000000
H    -4.381000000    -2.812000000    -0.804000000
H    -3.049000000    -3.438000000    -0.448000000
O     6.142000000     1.803000000    -0.307000000
H     5.240000000     1.483000000    -0.334000000
H     6.075000000     2.675000000     0.081000000
O     3.372000000    -1.663000000     3.483000000
H     3.582000000    -2.590000000     3.373000000
H     3.078000000    -1.589000000     4.391000000
O     4.180000000    -1.268000000    -5.927000000
H     3.362000000    -1.602000000    -5.560000000
H     4.370000000    -0.483000000    -5.413000000
O    -2.720000000    -2.011000000     3.773000000
H    -1.948000000    -1.849000000     3.230000000
H    -3.284000000    -1.253000000     3.620000000
O    -3.236000000    -0.155000000    -5.495000000
H    -3.586000000    -0.472000000    -4.662000000
H    -3.635000000     0.707000000    -5.609000000
O    -1.423000000     4.323000000     2.914000000
H    -0.611000000     3.859000000     2.710000000
H    -1.144000000     5.213000000     3.127000000
O     7.122000000    -3.888000000     1.380000000
H     7.991000000    -3.568000000     1.622000000
H     6.566000000    -3.110000000     1.399000000
O     1.673000000     2.729000000     4.523000000
H     1.320000000     3.372000000     3.908000000
H     2.267000000     2.195000000     3.996000000
O    -0.804000000    -5.222000000     1.794000000
H    -0.901000000    -6.103000000     1.434000000
H     0.139000000    -5.057000000     1.772000000
O    -5.776000000     0.303000000     1.628000000
H    -6.569000000    -0.001000000     2.071000000
H    -6.062000000     1.062000000     1.120000000
O     2.986000000    -3.338000000     0.414000000
H     3.242000000    -2.549000000    -0.064000000
H     3.522000000    -4.033000000     0.033000000
O     6.120000000    -0.526000000    -1.874000000
H     5.203000000    -0.572000000    -1.605000000
H     6.460000000     0.254000000    -1.434000000
O    -1.532000000     1.918000000    -3.880000000
H    -1.999000000     2.264000000    -4.641000000
H    -1.615000000     2.602000000    -3.216000000
O     6.862000000     4.946000000    -1.645000000
H     7.650000000     4.403000000    -1.631000000
H     6.159000000     4.341000000    -1.882000000
O    -1.710000000    -2.713000000    -4.224000000
H    -2.325000000    -2.022000000    -3.980000000
H    -0.846000000    -2.319000000    -4.103000000
O     0.489000000     3.921000000    -0.862000000
H    -0.330000000     3.663000000    -1.285000000
H     0.466000000     4.878000000    -0.859000000
O    -2.839000000    -5.744000000    -2.852000000
H    -3.139000000    -4.996000000    -2.336000000
H    -1.899000000    -5.598000000    -2.962000000
O     6.057000000     4.013000000     2.137000000
H     5.376000000     4.392000000     2.693000000
H     6.361000000     3.244000000     2.620000000
O    -6.649000000     3.958000000     1.310000000
H    -7.202000000     4.007000000     2.090000000
H    -5.839000000     4.402000000     1.563000000
O     1.309000000     4.001000000     2.152000000
H     0.934000000     4.004000000     1.271000000
H     1.767000000     4.839000000     2.220000000
O    -4.091000000     0.190000000     3.696000000
H    -4.631000000     0.246000000     2.908000000
H    -4.680000000     0.442000000     4.408000000
O    -3.132000000    -3.565000000     1.479000000
H    -2.337000000    -3.959000000     1.837000000
H    -3.456000000    -3.001000000     2.181000000
O     0.343000000    -1.314000000     2.935000000
H     0.257000000    -1.359000000     1.982000000
H     1.258000000    -1.539000000     3.103000000
O    -4.746000000     3.275000000    -0.751000000
H    -5.626000000     3.650000000    -0.803000000
H    -4.273000000     3.857000000    -0.157000000
O    -5.301000000     0.617000000    -1.704000000
H    -4.996000000     1.280000000    -1.084000000
H    -6.230000000     0.813000000    -1.826000000
O    -5.098000000    -5.430000000     0.283000000
H    -5.731000000    -5.052000000     0.894000000
H    -4.393000000    -4.784000000     0.239000000
O     1.813000000    -5.525000000     1.890000000
H     2.191000000    -6.174000000     1.297000000
H     2.137000000    -4.685000000     1.563000000
O     1.832000000     1.706000000    -3.727000000
H     1.066000000     1.230000000    -3.406000000
H     1.869000000     2.494000000    -3.185000000
O     4.478000000    -2.938000000    -2.612000000
H     4.252000000    -2.190000000    -2.059000000
H     5.427000000    -2.875000000    -2.723000000
O     4.419000000     1.055000000    -4.664000000
H     4.915000000     1.695000000    -4.153000000
H     3.559000000     1.028000000    -4.245000000
O    -0.424000000    -0.401000000    -3.456000000
H    -0.851000000     0.394000000    -3.775000000
H    -0.705000000    -0.475000000    -2.544000000
O     3.324000000     3.004000000    -1.373000000
H     2.516000000     3.245000000    -0.920000000
H     3.566000000     2.158000000    -0.997000000
O    -5.816000000    -2.003000000     0.136000000
H    -6.615000000    -1.650000000    -0.257000000
H    -5.355000000    -1.235000000     0.472000000
O     3.499000000     1.278000000     2.883000000
H     3.426000000     0.366000000     3.163000000
H     3.612000000     1.230000000     1.934000000
O    -3.808000000     3.618000000     3.949000000
H    -3.904000000     2.913000000     4.588000000
H    -2.862000000     3.696000000     3.820000000
O    -2.315000000     3.853000000    -2.208000000
H    -2.271000000     4.781000000    -1.978000000
H    -3.218000000     3.600000000    -2.012000000
O     5.345000000    -1.356000000     1.415000000
H     5.068000000    -1.010000000     0.566000000
H     4.695000000    -1.022000000     2.033000000
