161
-3028.20481
C     1.255000000     0.582000000     0.347000000
H     2.226000000     0.933000000     0.686000000
C     1.097000000    -0.736000000    -0.164000000
H     1.929000000    -1.436000000    -0.152000000
C    -0.158000000    -1.075000000    -0.569000000
C    -0.343000000    -2.444000000    -0.992000000
H    -0.116000000    -3.023000000    -0.094000000
H    -1.291000000    -2.728000000    -1.454000000
H     0.426000000    -2.758000000    -1.701000000
C    -1.206000000    -0.254000000    -0.449000000
H    -2.195000000    -0.539000000    -0.798000000
C    -1.054000000     1.032000000     0.166000000
H    -1.964000000     1.600000000     0.340000000
C     0.196000000     1.480000000     0.514000000
C     0.330000000     2.769000000     1.235000000
O    -0.599000000     3.346000000     1.680000000
O     1.463000000     3.247000000     1.402000000
O     3.913000000    -6.328000000    -3.044000000
H     3.553000000    -7.143000000    -2.694000000
H     3.145000000    -5.813000000    -3.290000000
O     6.851000000     0.179000000    -0.913000000
H     7.469000000    -0.314000000    -0.375000000
H     6.272000000     0.607000000    -0.283000000
O    -3.167000000     5.058000000    -3.344000000
H    -3.169000000     6.011000000    -3.429000000
H    -3.415000000     4.898000000    -2.434000000
O     4.710000000    -3.771000000    -3.561000000
H     5.022000000    -4.246000000    -2.791000000
H     3.761000000    -3.898000000    -3.553000000
O    -4.290000000     3.103000000    -0.647000000
H    -4.727000000     2.651000000     0.075000000
H    -4.655000000     3.988000000    -0.631000000
O    -0.914000000    -6.782000000     3.247000000
H    -1.190000000    -7.080000000     4.114000000
H    -1.311000000    -5.916000000     3.154000000
O     1.998000000    -4.543000000    -3.526000000
H     1.741000000    -3.714000000    -3.931000000
H     1.263000000    -4.770000000    -2.957000000
O     2.566000000     3.453000000    -1.126000000
H     3.082000000     2.665000000    -1.296000000
H     2.239000000     3.337000000    -0.234000000
O    -2.322000000    -4.587000000     0.193000000
H    -1.979000000    -4.307000000     1.042000000
H    -3.000000000    -3.945000000    -0.016000000
O    -0.566000000     4.120000000    -3.074000000
H    -0.471000000     4.664000000    -2.292000000
H    -1.451000000     4.306000000    -3.389000000
O     1.753000000    -2.007000000    -4.503000000
H     1.015000000    -1.517000000    -4.864000000
H     2.466000000    -1.370000000    -4.459000000
O     3.005000000     1.063000000     4.720000000
H     3.498000000     1.222000000     3.915000000
H     2.205000000     1.579000000     4.617000000
O     1.047000000     5.972000000     1.709000000
H     0.857000000     5.064000000     1.944000000
H     2.001000000     6.005000000     1.635000000
O    -5.409000000     3.760000000     2.483000000
H    -5.364000000     4.137000000     3.362000000
H    -5.047000000     4.439000000     1.913000000
O    -4.328000000    -1.127000000    -2.269000000
H    -4.344000000    -1.583000000    -3.110000000
H    -3.698000000    -0.417000000    -2.393000000
O    -3.561000000    -2.156000000    -4.534000000
H    -2.617000000    -2.295000000    -4.459000000
H    -3.692000000    -1.884000000    -5.442000000
O    -6.081000000     0.031000000    -0.569000000
H    -5.317000000    -0.317000000    -1.028000000
H    -6.830000000    -0.355000000    -1.023000000
O    -3.798000000    -6.786000000    -0.009000000
H    -3.354000000    -7.582000000     0.281000000
H    -3.157000000    -6.089000000     0.133000000
O     3.844000000     3.616000000     2.515000000
H     3.011000000     3.401000000     2.096000000
H     3.853000000     4.572000000     2.555000000
O     1.285000000    -4.563000000     2.637000000
H     1.161000000    -4.538000000     3.585000000
H     0.405000000    -4.690000000     2.283000000
O    -3.974000000     1.593000000    -3.054000000
H    -4.068000000     2.162000000    -2.290000000
H    -3.056000000     1.683000000    -3.308000000
O    -1.603000000    -4.346000000    -4.751000000
H    -0.903000000    -3.866000000    -5.192000000
H    -2.158000000    -4.668000000    -5.461000000
O     4.461000000     6.379000000     2.498000000
H     5.371000000     6.329000000     2.205000000
H     4.122000000     7.176000000     2.091000000
O     0.675000000     0.680000000    -3.154000000
H     0.373000000     1.327000000    -2.517000000
H     1.219000000     0.079000000    -2.646000000
O    -0.775000000    -5.413000000    -2.185000000
H    -1.140000000    -5.478000000    -1.303000000
H    -1.303000000    -4.740000000    -2.614000000
O    -4.778000000    -3.215000000    -0.751000000
H    -5.402000000    -3.733000000    -1.260000000
H    -4.866000000    -2.327000000    -1.096000000
O     4.188000000    -2.759000000     0.930000000
H     3.665000000    -2.076000000     1.350000000
H     3.620000000    -3.530000000     0.932000000
O    -1.593000000     5.694000000     2.712000000
H    -0.747000000     6.124000000     2.585000000
H    -1.452000000     4.795000000     2.415000000
O    -0.032000000     7.277000000    -0.408000000
H     0.414000000     7.281000000     0.439000000
H    -0.521000000     6.454000000    -0.417000000
O     5.773000000     2.387000000     0.887000000
H     6.450000000     2.333000000     1.561000000
H     5.066000000     2.885000000     1.298000000
O    -1.999000000     2.504000000     3.669000000
H    -2.027000000     3.340000000     4.134000000
H    -1.433000000     2.669000000     2.914000000
O    -0.990000000     1.258000000     5.869000000
H    -1.391000000     1.799000000     5.188000000
H    -0.137000000     1.662000000     6.024000000
O    -4.566000000    -2.111000000     1.934000000
H    -4.922000000    -2.412000000     2.769000000
H    -4.812000000    -2.792000000     1.308000000
O     3.699000000     1.073000000    -2.259000000
H     4.358000000     0.448000000    -1.956000000
H     3.591000000     0.875000000    -3.189000000
O    -2.698000000     4.641000000     5.206000000
H    -2.081000000     4.758000000     5.929000000
H    -2.352000000     5.193000000     4.504000000
O     0.304000000    -7.593000000    -3.627000000
H    -0.132000000    -6.803000000    -3.310000000
H    -0.348000000    -8.286000000    -3.520000000
O    -1.518000000     4.900000000    -0.399000000
H    -2.418000000     4.579000000    -0.357000000
H    -1.067000000     4.443000000     0.311000000
O    -4.540000000     6.276000000     1.659000000
H    -3.819000000     6.360000000     2.283000000
H    -5.002000000     7.113000000     1.713000000
O     3.430000000     5.574000000    -2.516000000
H     2.912000000     4.928000000    -2.035000000
H     3.830000000     5.077000000    -3.230000000
O    -0.429000000    -1.196000000     4.899000000
H    -0.819000000    -1.396000000     4.048000000
H    -0.658000000    -0.280000000     5.057000000
O     6.714000000    -3.457000000    -0.222000000
H     7.157000000    -3.627000000     0.609000000
H     5.843000000    -3.148000000     0.030000000
O    -1.643000000    -4.361000000     3.156000000
H    -2.320000000    -4.316000000     3.831000000
H    -1.579000000    -3.467000000     2.821000000
O     1.742000000     5.526000000     4.921000000
H     2.585000000     5.452000000     5.369000000
H     1.730000000     6.420000000     4.580000000
O     0.970000000     2.826000000     4.233000000
H     0.901000000     2.962000000     3.288000000
H     1.102000000     3.703000000     4.593000000
O    -1.804000000    -1.614000000     2.495000000
H    -2.683000000    -1.689000000     2.125000000
H    -1.390000000    -0.915000000     1.990000000
O     2.255000000    -4.880000000     0.320000000
H     2.099000000    -5.008000000     1.256000000
H     1.680000000    -5.515000000    -0.107000000
O     1.919000000    -1.990000000     2.889000000
H     1.653000000    -2.907000000     2.826000000
H     1.200000000    -1.563000000     3.355000000
O    -4.518000000     1.585000000     3.508000000
H    -3.622000000     1.892000000     3.644000000
H    -4.883000000     2.191000000     2.863000000
