161
-3046.21742
C    -0.912000000    -0.945000000    -0.818000000
H    -1.403000000    -1.752000000    -1.355000000
C    -0.007000000    -1.315000000     0.213000000
H    -0.031000000    -2.320000000     0.625000000
C     0.782000000    -0.355000000     0.823000000
C     1.733000000    -0.752000000     2.019000000
H     1.949000000     0.095000000     2.674000000
H     1.189000000    -1.447000000     2.662000000
H     2.662000000    -1.211000000     1.674000000
C     0.667000000     0.944000000     0.503000000
H     1.163000000     1.706000000     1.098000000
C    -0.196000000     1.350000000    -0.477000000
H    -0.287000000     2.428000000    -0.584000000
C    -0.986000000     0.381000000    -1.142000000
C    -1.828000000     0.899000000    -2.322000000
O    -2.240000000     2.067000000    -2.424000000
O    -2.247000000     0.223000000    -3.169000000
O    -5.939000000     2.354000000    -0.564000000
H    -6.114000000     3.233000000    -0.228000000
H    -5.496000000     2.502000000    -1.400000000
O    -0.883000000    -3.545000000     3.201000000
H    -0.131000000    -3.960000000     3.622000000
H    -1.283000000    -4.244000000     2.683000000
O     5.901000000     0.366000000    -1.649000000
H     4.981000000     0.419000000    -1.909000000
H     5.917000000    -0.300000000    -0.962000000
O     3.184000000    -1.411000000     5.895000000
H     3.794000000    -2.020000000     5.478000000
H     3.494000000    -0.544000000     5.635000000
O     1.163000000    -5.637000000     0.742000000
H     1.658000000    -5.151000000     1.402000000
H     1.366000000    -5.196000000    -0.083000000
O     2.454000000    -4.091000000    -1.309000000
H     2.008000000    -3.731000000    -2.075000000
H     2.711000000    -3.324000000    -0.798000000
O    -3.671000000     6.607000000    -0.727000000
H    -3.159000000     5.812000000    -0.580000000
H    -3.548000000     6.803000000    -1.655000000
O     0.929000000    -3.403000000    -3.654000000
H     1.224000000    -2.570000000    -4.021000000
H     1.275000000    -4.065000000    -4.252000000
O    -3.767000000    -4.242000000     3.071000000
H    -3.800000000    -4.270000000     4.027000000
H    -3.180000000    -3.514000000     2.872000000
O    -3.138000000    -2.233000000    -7.241000000
H    -2.888000000    -2.049000000    -6.336000000
H    -3.792000000    -1.566000000    -7.450000000
O    -5.240000000    -3.578000000    -4.632000000
H    -4.468000000    -3.014000000    -4.584000000
H    -5.852000000    -3.099000000    -5.192000000
O    -3.626000000     0.530000000     2.870000000
H    -2.836000000     0.182000000     3.284000000
H    -4.344000000     0.204000000     3.412000000
O    -5.325000000    -1.048000000     0.251000000
H    -4.800000000    -1.222000000     1.032000000
H    -5.983000000    -0.416000000     0.540000000
O     1.093000000     4.613000000     0.968000000
H     1.910000000     4.468000000     1.445000000
H     0.477000000     4.916000000     1.635000000
O     7.049000000    -0.853000000     2.355000000
H     8.003000000    -0.861000000     2.268000000
H     6.733000000    -1.290000000     1.564000000
O    -0.711000000     3.016000000    -4.361000000
H    -1.271000000     3.023000000    -5.137000000
H    -1.294000000     2.757000000    -3.647000000
O    -3.285000000    -5.116000000    -1.089000000
H    -2.872000000    -4.815000000    -1.898000000
H    -2.556000000    -5.419000000    -0.547000000
O    -1.304000000    -0.733000000     3.664000000
H    -1.189000000    -0.723000000     4.614000000
H    -1.128000000    -1.639000000     3.411000000
O     5.875000000    -2.141000000     0.165000000
H     5.039000000    -2.525000000     0.427000000
H     6.013000000    -2.454000000    -0.729000000
O    -0.473000000     5.365000000    -2.618000000
H    -1.041000000     4.914000000    -1.993000000
H    -0.223000000     4.687000000    -3.246000000
O     5.007000000    -2.902000000     4.015000000
H     5.140000000    -3.339000000     3.173000000
H     4.549000000    -3.549000000     4.551000000
O    -0.256000000    -0.762000000    -4.601000000
H    -0.919000000    -1.302000000    -5.030000000
H    -0.727000000    -0.322000000    -3.894000000
O    -1.920000000    -4.162000000    -3.471000000
H    -1.710000000    -5.094000000    -3.409000000
H    -1.125000000    -3.760000000    -3.821000000
O     6.146000000     0.045000000     5.453000000
H     5.213000000     0.231000000     5.350000000
H     6.364000000    -0.509000000     4.703000000
O    -4.003000000     4.219000000    -5.272000000
H    -4.094000000     3.428000000    -5.804000000
H    -4.231000000     4.934000000    -5.866000000
O     3.307000000    -1.298000000    -0.868000000
H     3.201000000    -1.003000000    -1.773000000
H     2.678000000    -0.777000000    -0.370000000
O    -2.356000000     4.197000000    -0.778000000
H    -2.701000000     3.672000000    -1.500000000
H    -2.475000000     3.647000000    -0.003000000
O     5.415000000     4.139000000    -0.169000000
H     4.614000000     3.770000000    -0.540000000
H     5.870000000     3.389000000     0.214000000
O     1.341000000     1.337000000    -4.473000000
H     0.562000000     1.893000000    -4.476000000
H     1.000000000     0.448000000    -4.575000000
O     1.188000000     3.028000000     5.083000000
H     0.562000000     2.528000000     4.561000000
H     0.878000000     2.932000000     5.984000000
O    -3.385000000     1.987000000     0.633000000
H    -3.465000000     1.223000000     1.204000000
H    -4.263000000     2.109000000     0.273000000
O     2.755000000     3.674000000    -1.235000000
H     2.778000000     4.360000000    -1.902000000
H     2.113000000     3.982000000    -0.596000000
O    -5.411000000    -0.043000000    -4.814000000
H    -5.911000000     0.746000000    -4.604000000
H    -5.068000000    -0.340000000    -3.971000000
O    -0.752000000     1.959000000     3.680000000
H    -0.952000000     1.034000000     3.542000000
H    -0.586000000     2.302000000     2.802000000
O     3.089000000     1.009000000    -2.290000000
H     2.499000000     1.060000000    -3.041000000
H     2.959000000     1.837000000    -1.827000000
O    -4.531000000     3.207000000    -2.778000000
H    -3.730000000     2.704000000    -2.633000000
H    -4.493000000     3.458000000    -3.701000000
O     5.366000000    -4.702000000     1.916000000
H     5.080000000    -4.975000000     1.044000000
H     5.122000000    -5.430000000     2.487000000
O     1.855000000    -5.014000000     3.361000000
H     1.483000000    -5.890000000     3.467000000
H     2.482000000    -4.932000000     4.079000000
O    -1.555000000    -5.702000000     0.800000000
H    -0.718000000    -5.313000000     0.546000000
H    -1.321000000    -6.556000000     1.165000000
O    -2.957000000    -2.036000000    -4.650000000
H    -2.541000000    -2.815000000    -4.281000000
H    -2.905000000    -1.383000000    -3.952000000
O     0.856000000    -2.992000000     6.183000000
H     0.277000000    -2.237000000     6.069000000
H     1.712000000    -2.610000000     6.375000000
O     3.552000000     1.073000000     4.860000000
H     3.792000000     1.236000000     3.948000000
H     3.162000000     1.896000000     5.157000000
O     3.564000000     3.584000000     2.497000000
H     3.926000000     2.736000000     2.242000000
H     4.040000000     3.817000000     3.295000000
O    -3.007000000     1.454000000    -5.605000000
H    -2.588000000     1.408000000    -4.746000000
H    -3.733000000     0.832000000    -5.551000000
O     4.707000000     1.020000000     2.375000000
H     4.255000000     0.537000000     1.683000000
H     5.542000000     0.565000000     2.479000000
O    -0.603000000    -0.594000000     6.351000000
H     0.140000000    -0.558000000     6.953000000
H    -1.315000000    -0.162000000     6.823000000
O    -4.643000000    -0.785000000    -2.443000000
H    -4.711000000    -0.785000000    -1.488000000
H    -3.941000000    -0.162000000    -2.633000000
O    -4.762000000     6.549000000    -3.806000000
H    -5.094000000     6.829000000    -4.658000000
H    -4.418000000     5.669000000    -3.960000000
