161
-3011.21091
C    -1.461000000    -0.215000000     0.228000000
H    -2.523000000    -0.397000000     0.372000000
C    -0.435000000    -1.129000000     0.666000000
H    -0.656000000    -2.066000000     1.172000000
C     0.873000000    -0.759000000     0.378000000
C     2.013000000    -1.669000000     0.775000000
H     1.921000000    -2.696000000     0.413000000
H     2.987000000    -1.248000000     0.518000000
H     2.037000000    -1.749000000     1.864000000
C     1.162000000     0.376000000    -0.338000000
H     2.185000000     0.583000000    -0.642000000
C     0.135000000     1.227000000    -0.647000000
H     0.347000000     2.162000000    -1.158000000
C    -1.206000000     0.988000000    -0.386000000
C    -2.177000000     1.988000000    -0.852000000
O    -1.879000000     2.762000000    -1.722000000
O    -3.322000000     1.844000000    -0.634000000
O    -4.955000000     4.703000000     0.645000000
H    -5.116000000     3.922000000     0.117000000
H    -4.884000000     4.375000000     1.542000000
O    -6.826000000    -3.186000000    -0.881000000
H    -6.181000000    -3.893000000    -0.855000000
H    -6.373000000    -2.435000000    -0.498000000
O    -0.738000000    -3.458000000     4.043000000
H    -0.231000000    -2.913000000     4.645000000
H    -0.225000000    -3.462000000     3.235000000
O     3.064000000    -0.245000000     5.691000000
H     3.508000000     0.185000000     4.960000000
H     2.766000000     0.475000000     6.247000000
O     2.217000000    -6.352000000     2.955000000
H     1.664000000    -5.578000000     2.852000000
H     1.727000000    -7.055000000     2.530000000
O    -3.401000000    -5.753000000     2.848000000
H    -3.137000000    -6.038000000     3.722000000
H    -2.753000000    -6.144000000     2.262000000
O    -0.759000000    -4.493000000    -0.995000000
H    -0.331000000    -4.054000000    -1.730000000
H    -1.035000000    -5.338000000    -1.349000000
O     4.198000000    -6.567000000     0.752000000
H     3.495000000    -6.269000000     1.329000000
H     3.858000000    -6.427000000    -0.132000000
O    -2.985000000     7.091000000    -2.237000000
H    -2.078000000     6.951000000    -2.508000000
H    -3.491000000     6.469000000    -2.760000000
O     0.920000000    -3.341000000    -2.723000000
H     1.781000000    -3.001000000    -2.478000000
H     0.815000000    -3.088000000    -3.640000000
O    -3.725000000    -2.925000000     3.957000000
H    -3.240000000    -3.192000000     3.176000000
H    -4.428000000    -3.570000000     4.034000000
O    -2.811000000     2.621000000     3.316000000
H    -2.064000000     2.317000000     2.800000000
H    -3.574000000     2.250000000     2.873000000
O    -4.803000000     1.223000000     1.835000000
H    -4.933000000     0.275000000     1.831000000
H    -4.319000000     1.402000000     1.029000000
O     1.034000000     3.392000000    -5.686000000
H     0.918000000     4.173000000    -5.145000000
H     0.164000000     2.995000000    -5.723000000
O     4.339000000     3.871000000    -2.735000000
H     3.921000000     3.893000000    -1.874000000
H     4.068000000     3.034000000    -3.112000000
O     3.926000000    -2.764000000    -3.085000000
H     3.659000000    -3.375000000    -3.772000000
H     4.014000000    -1.923000000    -3.533000000
O    -1.402000000    -0.660000000     3.733000000
H    -2.046000000    -0.538000000     4.431000000
H    -1.456000000    -1.591000000     3.517000000
O     6.445000000     1.184000000     1.377000000
H     7.063000000     1.112000000     0.650000000
H     5.615000000     1.422000000     0.964000000
O     0.703000000     5.825000000    -4.126000000
H     0.069000000     6.416000000    -4.532000000
H     0.217000000     5.401000000    -3.419000000
O     1.303000000    -0.623000000    -4.027000000
H     1.008000000    -1.040000000    -3.218000000
H     0.709000000    -0.955000000    -4.699000000
O    -4.682000000    -4.658000000    -1.522000000
H    -3.921000000    -4.632000000    -0.942000000
H    -4.898000000    -5.587000000    -1.592000000
O    -5.321000000    -1.325000000     1.842000000
H    -6.207000000    -1.440000000     2.187000000
H    -4.759000000    -1.783000000     2.466000000
O    -3.862000000     3.882000000    -5.225000000
H    -3.295000000     4.100000000    -5.965000000
H    -4.280000000     4.711000000    -4.991000000
O     6.227000000    -1.342000000    -2.109000000
H     5.324000000    -1.163000000    -2.368000000
H     6.213000000    -2.249000000    -1.803000000
O     2.994000000    -6.182000000    -1.615000000
H     2.490000000    -5.368000000    -1.606000000
H     2.828000000    -6.558000000    -2.480000000
O    -0.935000000     5.188000000    -1.905000000
H    -1.170000000     4.262000000    -1.977000000
H    -1.361000000     5.481000000    -1.100000000
O     4.455000000    -0.384000000    -4.538000000
H     4.174000000     0.521000000    -4.406000000
H     4.977000000    -0.359000000    -5.340000000
O     2.728000000     1.676000000    -3.796000000
H     2.287000000     2.288000000    -4.385000000
H     2.200000000     0.878000000    -3.840000000
O    -7.037000000     1.407000000     3.585000000
H    -6.336000000     1.422000000     2.934000000
H    -7.147000000     2.323000000     3.840000000
O     0.995000000     3.355000000     4.125000000
H     0.625000000     2.620000000     3.634000000
H     0.306000000     3.602000000     4.742000000
O    -2.673000000     6.185000000     0.197000000
H    -3.351000000     5.546000000     0.418000000
H    -2.976000000     6.583000000    -0.619000000
O     2.065000000     5.310000000    -1.312000000
H     1.113000000     5.227000000    -1.258000000
H     2.362000000     5.249000000    -0.404000000
O    -5.897000000     0.376000000    -5.008000000
H    -6.783000000     0.210000000    -4.687000000
H    -5.361000000     0.428000000    -4.217000000
O    -0.073000000     1.463000000     2.649000000
H    -0.460000000     0.702000000     3.083000000
H     0.474000000     1.091000000     1.957000000
O     4.502000000     1.417000000    -1.165000000
H     3.794000000     0.970000000    -1.630000000
H     5.260000000     1.327000000    -1.742000000
O    -4.519000000     3.660000000    -2.297000000
H    -3.825000000     3.275000000    -1.763000000
H    -4.441000000     3.221000000    -3.145000000
O     6.697000000    -0.614000000     3.760000000
H     6.516000000     0.052000000     3.097000000
H     5.947000000    -1.208000000     3.714000000
O     4.632000000    -2.333000000     3.868000000
H     4.280000000    -2.972000000     4.488000000
H     4.662000000    -2.801000000     3.033000000
O    -7.197000000    -0.214000000    -0.243000000
H    -8.056000000    -0.260000000     0.176000000
H    -6.750000000     0.506000000     0.203000000
O     0.153000000    -4.526000000     1.593000000
H     0.016000000    -4.279000000     0.678000000
H    -0.535000000    -5.166000000     1.774000000
O    -3.384000000    -1.672000000    -3.117000000
H    -2.848000000    -1.946000000    -2.372000000
H    -3.503000000    -0.731000000    -2.992000000
O     0.524000000    -1.986000000     6.125000000
H     0.086000000    -1.172000000     6.375000000
H     1.424000000    -1.725000000     5.931000000
O    -6.968000000     3.215000000    -1.147000000
H    -6.176000000     3.429000000    -1.639000000
H    -7.549000000     2.810000000    -1.791000000
O    -1.395000000     3.100000000    -4.325000000
H    -2.199000000     3.588000000    -4.500000000
H    -1.513000000     2.752000000    -3.441000000
O     4.252000000     1.283000000     3.795000000
H     4.120000000     0.829000000     2.963000000
H     4.289000000     2.210000000     3.559000000
O     5.468000000    -3.588000000     1.245000000
H     5.973000000    -4.396000000     1.154000000
H     5.784000000    -3.027000000     0.536000000
O    -0.762000000    -5.733000000     5.356000000
H    -0.719000000    -5.264000000     6.189000000
H    -0.850000000    -5.044000000     4.697000000
O    -5.252000000     0.657000000    -2.363000000
H    -5.785000000     0.398000000    -1.612000000
H    -4.656000000     1.321000000    -2.016000000
