161
-3054.24104
C    -1.248000000    -0.741000000     0.397000000
H    -2.213000000    -1.224000000     0.524000000
C    -0.111000000    -1.336000000    -0.079000000
H    -0.117000000    -2.399000000    -0.304000000
C     1.031000000    -0.591000000    -0.307000000
C     2.354000000    -1.168000000    -0.885000000
H     2.190000000    -2.117000000    -1.400000000
H     2.725000000    -0.548000000    -1.704000000
H     3.062000000    -1.280000000    -0.061000000
C     0.917000000     0.801000000    -0.229000000
H     1.700000000     1.526000000    -0.438000000
C    -0.206000000     1.423000000     0.194000000
H    -0.169000000     2.509000000     0.226000000
C    -1.331000000     0.611000000     0.561000000
C    -2.567000000     1.307000000     0.964000000
O    -2.634000000     2.523000000     0.909000000
O    -3.389000000     0.704000000     1.632000000
O    -0.911000000     1.072000000     4.864000000
H    -1.247000000     0.488000000     4.184000000
H    -0.325000000     0.521000000     5.383000000
O     1.504000000    -4.091000000     3.116000000
H     2.331000000    -3.616000000     3.199000000
H     1.417000000    -4.257000000     2.177000000
O    -1.388000000    -3.886000000     3.467000000
H    -0.446000000    -4.003000000     3.587000000
H    -1.525000000    -2.943000000     3.555000000
O     4.272000000    -0.617000000     4.500000000
H     3.515000000    -0.763000000     3.932000000
H     4.883000000    -0.115000000     3.960000000
O    -3.350000000    -3.690000000    -0.777000000
H    -3.127000000    -4.147000000     0.034000000
H    -4.244000000    -3.378000000    -0.637000000
O     3.394000000     1.924000000     1.859000000
H     2.796000000     1.222000000     2.117000000
H     2.861000000     2.718000000     1.893000000
O    -1.953000000    -5.047000000    -2.542000000
H    -1.042000000    -4.754000000    -2.521000000
H    -2.405000000    -4.470000000    -1.926000000
O    -4.360000000     0.698000000     6.008000000
H    -4.425000000    -0.129000000     5.530000000
H    -3.485000000     0.682000000     6.395000000
O    -3.262000000     6.273000000     1.635000000
H    -2.766000000     5.483000000     1.851000000
H    -4.140000000     6.105000000     1.979000000
O    -6.097000000    -1.560000000    -1.940000000
H    -6.441000000    -0.882000000    -1.358000000
H    -6.626000000    -1.485000000    -2.734000000
O     5.644000000     1.197000000     2.849000000
H     6.137000000     2.002000000     3.009000000
H     4.881000000     1.479000000     2.345000000
O    -2.678000000    -1.274000000     3.464000000
H    -2.872000000    -0.541000000     2.880000000
H    -3.533000000    -1.542000000     3.802000000
O     0.084000000     2.581000000    -4.756000000
H    -0.646000000     2.876000000    -4.212000000
H     0.810000000     2.466000000    -4.142000000
O     4.792000000    -1.048000000    -3.565000000
H     4.338000000    -0.428000000    -4.136000000
H     4.426000000    -1.901000000    -3.799000000
O    -1.260000000     3.380000000    -2.539000000
H    -1.349000000     2.605000000    -1.986000000
H    -1.278000000     4.116000000    -1.927000000
O     1.508000000    -4.688000000     0.433000000
H     1.321000000    -5.557000000     0.078000000
H     2.086000000    -4.284000000    -0.214000000
O    -8.338000000     0.809000000     3.139000000
H    -7.500000000     0.924000000     2.692000000
H    -8.691000000     1.696000000     3.218000000
O     4.953000000     3.086000000    -3.162000000
H     5.889000000     3.155000000    -3.349000000
H     4.908000000     2.581000000    -2.350000000
O     4.228000000    -3.208000000    -4.920000000
H     3.301000000    -3.440000000    -4.973000000
H     4.600000000    -3.519000000    -5.745000000
O    -1.489000000     4.786000000    -0.253000000
H    -1.930000000     4.168000000     0.329000000
H    -1.536000000     5.624000000     0.208000000
O    -5.885000000     0.869000000     1.738000000
H    -6.014000000     1.254000000     0.871000000
H    -4.953000000     0.654000000     1.769000000
O     3.569000000     5.636000000    -3.241000000
H     3.027000000     5.168000000    -2.607000000
H     4.046000000     4.946000000    -3.704000000
O    -4.993000000     5.202000000     4.118000000
H    -5.842000000     4.960000000     4.488000000
H    -4.633000000     4.379000000     3.787000000
O    -3.800000000     3.178000000    -3.844000000
H    -2.996000000     3.516000000    -3.448000000
H    -4.188000000     3.935000000    -4.283000000
O    -1.426000000    -5.014000000     0.911000000
H    -1.603000000    -4.486000000     1.689000000
H    -0.471000000    -5.029000000     0.844000000
O    -4.938000000    -1.738000000     4.743000000
H    -5.820000000    -1.704000000     5.115000000
H    -4.749000000    -2.673000000     4.660000000
O    -1.450000000     4.313000000     2.635000000
H    -1.936000000     3.563000000     2.293000000
H    -1.508000000     4.222000000     3.586000000
O     2.006000000     2.147000000    -2.872000000
H     1.559000000     1.402000000    -2.472000000
H     2.823000000     1.783000000    -3.211000000
O    -5.773000000    -3.426000000     0.229000000
H    -6.208000000    -3.018000000    -0.520000000
H    -6.066000000    -2.914000000     0.984000000
O     1.776000000    -0.008000000     3.292000000
H     1.147000000    -0.177000000     2.590000000
H     1.309000000    -0.243000000     4.094000000
O    -4.564000000     1.223000000    -1.988000000
H    -4.474000000     1.680000000    -2.824000000
H    -3.709000000     0.816000000    -1.844000000
O     4.570000000     4.775000000    -0.259000000
H     4.515000000     4.008000000    -0.828000000
H     5.111000000     4.489000000     0.477000000
O     1.606000000     4.580000000    -1.678000000
H     1.902000000     3.747000000    -2.047000000
H     1.666000000     4.457000000    -0.731000000
O     4.543000000    -3.695000000     0.927000000
H     4.393000000    -3.694000000     1.873000000
H     4.512000000    -2.771000000     0.679000000
O     1.572000000     4.078000000     1.215000000
H     0.746000000     3.977000000     1.688000000
H     2.060000000     4.726000000     1.722000000
O    -3.702000000    -1.507000000    -2.753000000
H    -3.106000000    -1.590000000    -2.008000000
H    -4.564000000    -1.378000000    -2.356000000
O    -4.848000000     3.593000000    -0.455000000
H    -4.308000000     3.384000000     0.307000000
H    -4.889000000     2.775000000    -0.951000000
O    -0.804000000    -3.009000000    -4.724000000
H    -1.441000000    -2.304000000    -4.605000000
H    -0.592000000    -3.293000000    -3.836000000
O     3.223000000     0.602000000    -5.408000000
H     2.869000000     0.031000000    -6.089000000
H     4.093000000     0.844000000    -5.727000000
O    -4.168000000     2.450000000     3.891000000
H    -4.711000000     1.868000000     4.424000000
H    -3.948000000     1.930000000     3.118000000
O     5.652000000    -0.773000000    -0.991000000
H     6.361000000    -1.385000000    -0.790000000
H     5.463000000    -0.923000000    -1.918000000
O     3.227000000    -4.211000000    -1.546000000
H     3.850000000    -3.880000000    -0.900000000
H     3.529000000    -5.099000000    -1.739000000
O    -5.981000000     5.669000000    -1.582000000
H    -5.515000000     5.028000000    -1.044000000
H    -6.271000000     6.337000000    -0.961000000
O    -1.543000000    -7.278000000    -0.764000000
H    -1.780000000    -6.919000000    -1.619000000
H    -1.827000000    -6.612000000    -0.138000000
O     4.553000000     1.911000000    -0.784000000
H     4.126000000     1.874000000     0.072000000
H     4.874000000     1.021000000    -0.930000000
O     0.867000000    -4.201000000    -3.101000000
H     1.298000000    -4.447000000    -3.919000000
H     1.584000000    -3.936000000    -2.523000000
O    -7.259000000    -2.359000000     2.174000000
H    -6.753000000    -1.569000000     2.363000000
H    -7.843000000    -2.105000000     1.460000000
O    -7.099000000     1.065000000    -0.945000000
H    -6.354000000     1.146000000    -1.541000000
H    -7.439000000     1.956000000    -0.864000000
