161
-3062.45333
C    -1.425000000    -0.439000000     0.010000000
H    -2.435000000    -0.808000000    -0.148000000
C    -0.511000000    -0.683000000    -1.027000000
H    -0.801000000    -1.211000000    -1.932000000
C     0.824000000    -0.232000000    -0.925000000
C     1.719000000    -0.417000000    -2.081000000
H     2.583000000     0.237000000    -1.944000000
H     2.087000000    -1.445000000    -2.100000000
H     1.242000000    -0.259000000    -3.051000000
C     1.198000000     0.322000000     0.283000000
H     2.207000000     0.721000000     0.336000000
C     0.371000000     0.413000000     1.423000000
H     0.675000000     0.871000000     2.360000000
C    -0.999000000     0.201000000     1.204000000
C    -2.005000000     0.800000000     2.216000000
O    -1.646000000     1.640000000     3.067000000
O    -3.081000000     0.285000000     2.315000000
O    -2.761000000     2.499000000     5.982000000
H    -2.991000000     1.735000000     6.511000000
H    -3.308000000     2.424000000     5.201000000
O     4.803000000    -0.578000000     0.742000000
H     5.595000000    -0.099000000     0.987000000
H     4.848000000    -0.642000000    -0.212000000
O     4.542000000     2.456000000    -3.219000000
H     4.664000000     3.403000000    -3.160000000
H     4.966000000     2.110000000    -2.434000000
O     1.823000000    -0.570000000     5.641000000
H     0.948000000    -0.285000000     5.378000000
H     2.110000000    -1.147000000     4.933000000
O    -2.492000000    -5.055000000    -0.816000000
H    -1.574000000    -5.226000000    -1.024000000
H    -2.839000000    -5.904000000    -0.544000000
O     4.297000000     2.345000000     1.794000000
H     3.929000000     3.199000000     2.019000000
H     4.848000000     2.515000000     1.029000000
O    -2.193000000    -2.438000000    -4.777000000
H    -1.644000000    -1.674000000    -4.955000000
H    -2.806000000    -2.140000000    -4.104000000
O    -6.089000000     0.661000000     5.239000000
H    -6.567000000     1.474000000     5.402000000
H    -6.712000000     0.108000000     4.767000000
O     4.268000000     0.877000000    -5.269000000
H     4.130000000    -0.027000000    -4.988000000
H     4.571000000     1.329000000    -4.482000000
O    -3.979000000    -1.012000000    -3.203000000
H    -4.112000000    -0.231000000    -2.667000000
H    -3.984000000    -1.736000000    -2.577000000
O     1.714000000    -1.688000000    -5.564000000
H     1.558000000    -1.372000000    -6.454000000
H     1.119000000    -1.173000000    -5.019000000
O     1.236000000     3.709000000    -5.243000000
H     1.421000000     3.674000000    -4.305000000
H     0.281000000     3.683000000    -5.301000000
O    -0.355000000    -2.470000000     4.812000000
H    -1.209000000    -2.214000000     5.160000000
H    -0.532000000    -2.724000000     3.906000000
O    -1.139000000     1.932000000    -3.854000000
H    -1.947000000     2.395000000    -3.636000000
H    -0.495000000     2.266000000    -3.229000000
O     4.103000000    -1.799000000    -4.261000000
H     3.249000000    -2.024000000    -4.632000000
H     4.623000000    -2.597000000    -4.355000000
O    -0.756000000     2.745000000    -0.584000000
H    -0.267000000     1.953000000    -0.806000000
H    -0.771000000     2.757000000     0.373000000
O     0.280000000    -5.607000000    -0.545000000
H     0.256000000    -4.945000000     0.146000000
H     1.204000000    -5.664000000    -0.790000000
O    -7.173000000     2.362000000     1.259000000
H    -6.607000000     1.605000000     1.412000000
H    -7.851000000     2.293000000     1.931000000
O     6.158000000     2.415000000    -0.790000000
H     6.958000000     1.890000000    -0.768000000
H     6.462000000     3.319000000    -0.708000000
O     5.279000000    -1.228000000    -2.084000000
H     4.758000000    -1.584000000    -2.804000000
H     5.778000000    -0.514000000    -2.480000000
O    -0.358000000     3.749000000     1.877000000
H    -0.875000000     3.305000000     2.549000000
H     0.530000000     3.771000000     2.235000000
O    -5.604000000     0.342000000     1.515000000
H    -5.590000000    -0.366000000     0.871000000
H    -4.693000000     0.427000000     1.798000000
O    -2.395000000    -1.777000000     6.226000000
H    -1.832000000    -2.072000000     6.942000000
H    -2.994000000    -1.151000000     6.635000000
O    -3.087000000     4.796000000     3.270000000
H    -2.947000000     4.715000000     2.326000000
H    -3.472000000     3.958000000     3.528000000
O    -4.112000000     0.482000000     6.989000000
H    -4.602000000     0.056000000     7.692000000
H    -4.747000000     0.581000000     6.280000000
O    -2.192000000    -3.941000000     1.784000000
H    -2.651000000    -3.381000000     2.410000000
H    -2.727000000    -3.902000000     0.991000000
O    -0.402000000     1.192000000     5.402000000
H    -0.974000000     1.845000000     5.805000000
H    -0.813000000     1.003000000     4.558000000
O     1.481000000     2.904000000    -2.654000000
H     2.364000000     2.596000000    -2.856000000
H     1.576000000     3.381000000    -1.830000000
O    -1.599000000     5.155000000     6.035000000
H    -1.842000000     5.696000000     5.284000000
H    -1.805000000     4.261000000     5.762000000
O    -6.330000000    -2.976000000     4.243000000
H    -6.907000000    -2.293000000     3.902000000
H    -5.463000000    -2.571000000     4.261000000
O     0.617000000    -3.109000000     0.909000000
H     0.021000000    -2.455000000     0.545000000
H     1.371000000    -2.604000000     1.212000000
O    -5.205000000     1.310000000    -1.656000000
H    -5.981000000     0.751000000    -1.594000000
H    -5.553000000     2.201000000    -1.670000000
O     2.890000000    -2.007000000     2.279000000
H     3.229000000    -1.361000000     1.659000000
H     3.263000000    -1.748000000     3.122000000
O     2.412000000     4.439000000     2.907000000
H     2.335000000     3.709000000     3.521000000
H     2.988000000     5.063000000     3.349000000
O     1.915000000     4.439000000     0.064000000
H     2.118000000     4.611000000     0.983000000
H     0.977000000     4.249000000     0.058000000
O     1.972000000     2.364000000     4.326000000
H     2.817000000     2.200000000     4.746000000
H     1.401000000     1.671000000     4.659000000
O    -5.174000000    -3.407000000     1.283000000
H    -6.112000000    -3.389000000     1.091000000
H    -5.110000000    -3.108000000     2.190000000
O    -4.426000000     3.203000000     1.027000000
H    -5.258000000     3.077000000     1.482000000
H    -4.172000000     2.324000000     0.746000000
O    -0.704000000    -4.996000000    -3.186000000
H    -1.190000000    -4.171000000    -3.193000000
H    -0.202000000    -4.971000000    -2.371000000
O    -4.269000000     2.228000000     3.825000000
H    -4.939000000     1.555000000     3.704000000
H    -3.476000000     1.848000000     3.447000000
O     4.684000000    -3.240000000    -0.449000000
H     5.220000000    -2.747000000    -1.071000000
H     4.174000000    -2.573000000     0.009000000
O     2.999000000    -5.758000000    -0.651000000
H     3.575000000    -4.998000000    -0.565000000
H     3.286000000    -6.356000000     0.039000000
O    -2.294000000     5.323000000     0.611000000
H    -1.606000000     4.717000000     0.886000000
H    -1.832000000     6.001000000     0.119000000
O    -3.058000000     3.239000000    -2.097000000
H    -2.357000000     3.283000000    -1.447000000
H    -3.688000000     2.619000000    -1.729000000
O     1.583000000    -4.263000000    -6.407000000
H     1.488000000    -3.522000000    -5.808000000
H     2.092000000    -3.916000000    -7.139000000
O    -4.364000000    -3.168000000    -1.408000000
H    -4.753000000    -2.904000000    -0.574000000
H    -3.681000000    -3.794000000    -1.167000000
O    -3.750000000    -2.092000000     3.634000000
H    -3.406000000    -1.922000000     4.511000000
H    -3.576000000    -1.286000000     3.147000000
O    -0.560000000    -0.377000000    -5.193000000
H    -0.813000000     0.257000000    -4.521000000
H    -0.726000000     0.073000000    -6.021000000
