161
-3043.55568
C    -0.184000000     0.975000000     1.072000000
H    -0.449000000     1.643000000     1.888000000
C    -1.078000000    -0.028000000     0.823000000
H    -1.918000000    -0.223000000     1.485000000
C    -0.749000000    -0.904000000    -0.213000000
C    -1.480000000    -2.220000000    -0.380000000
H    -2.571000000    -2.182000000    -0.410000000
H    -1.229000000    -2.543000000    -1.393000000
H    -1.048000000    -2.949000000     0.309000000
C     0.283000000    -0.650000000    -1.093000000
H     0.463000000    -1.367000000    -1.890000000
C     1.152000000     0.381000000    -0.810000000
H     1.939000000     0.633000000    -1.516000000
C     0.868000000     1.282000000     0.262000000
C     1.744000000     2.453000000     0.461000000
O     2.904000000     2.363000000     0.200000000
O     1.346000000     3.332000000     1.204000000
O    -0.927000000    -5.970000000     3.757000000
H    -1.285000000    -6.856000000     3.705000000
H    -0.610000000    -5.787000000     2.873000000
O     0.154000000     2.201000000     4.702000000
H     0.899000000     2.419000000     5.263000000
H     0.538000000     1.717000000     3.971000000
O    -0.983000000     3.860000000     0.000000000
H    -0.790000000     3.774000000    -0.934000000
H    -0.127000000     3.982000000     0.411000000
O     5.374000000     1.131000000     0.392000000
H     4.510000000     1.533000000     0.298000000
H     5.190000000     0.220000000     0.624000000
O     1.974000000    -1.912000000     2.149000000
H     1.704000000    -2.685000000     2.645000000
H     1.418000000    -1.920000000     1.371000000
O     2.162000000    -1.371000000    -5.550000000
H     2.694000000    -0.577000000    -5.504000000
H     1.704000000    -1.305000000    -6.388000000
O    -0.372000000    -6.604000000     0.276000000
H    -0.146000000    -6.526000000    -0.651000000
H     0.218000000    -7.280000000     0.610000000
O     2.979000000    -0.745000000     4.983000000
H     3.082000000    -1.580000000     4.526000000
H     2.710000000    -0.131000000     4.301000000
O     2.586000000     0.853000000     2.918000000
H     2.815000000     1.704000000     2.545000000
H     2.659000000     0.242000000     2.184000000
O    -1.382000000     6.237000000     3.021000000
H    -1.439000000     6.588000000     3.910000000
H    -0.597000000     5.690000000     3.029000000
O     7.436000000     2.980000000    -0.679000000
H     6.678000000     2.433000000    -0.471000000
H     7.069000000     3.735000000    -1.138000000
O    -7.044000000    -0.393000000    -1.379000000
H    -6.235000000    -0.033000000    -1.015000000
H    -6.934000000    -0.317000000    -2.327000000
O    -5.725000000    -3.036000000     0.369000000
H    -5.771000000    -2.367000000     1.052000000
H    -5.275000000    -3.772000000     0.785000000
O    -2.315000000     1.611000000    -2.228000000
H    -1.888000000     1.702000000    -1.376000000
H    -1.603000000     1.396000000    -2.831000000
O     5.255000000     4.475000000    -1.600000000
H     5.514000000     5.397000000    -1.606000000
H     4.617000000     4.410000000    -0.889000000
O     3.449000000     2.384000000    -2.871000000
H     4.165000000     2.994000000    -2.694000000
H     3.061000000     2.215000000    -2.012000000
O    -2.902000000     3.721000000     3.252000000
H    -3.795000000     3.996000000     3.047000000
H    -2.363000000     4.484000000     3.046000000
O    -5.820000000    -3.181000000    -4.513000000
H    -5.395000000    -2.817000000    -3.736000000
H    -6.618000000    -3.591000000    -4.179000000
O     2.105000000     5.920000000     0.703000000
H     2.895000000     5.900000000     1.243000000
H     1.824000000     5.006000000     0.656000000
O     0.167000000     3.780000000    -2.487000000
H     1.017000000     3.708000000    -2.921000000
H    -0.462000000     3.864000000    -3.204000000
O    -1.479000000    -4.652000000    -3.020000000
H    -1.260000000    -3.763000000    -3.300000000
H    -0.689000000    -4.966000000    -2.581000000
O     6.320000000     0.114000000     2.801000000
H     5.560000000    -0.297000000     2.389000000
H     6.376000000     0.978000000     2.392000000
O    -0.314000000     0.936000000    -4.459000000
H     0.224000000     0.961000000    -5.250000000
H    -0.965000000     1.626000000    -4.590000000
O    -4.442000000     0.441000000    -1.194000000
H    -4.104000000     0.748000000    -2.035000000
H    -4.038000000     1.020000000    -0.547000000
O    -1.873000000     6.757000000    -0.854000000
H    -2.826000000     6.670000000    -0.876000000
H    -1.559000000     5.888000000    -0.607000000
O     0.342000000     8.204000000     0.832000000
H     0.939000000     7.489000000     0.613000000
H    -0.486000000     7.959000000     0.419000000
O    -0.763000000    -2.250000000    -4.184000000
H    -0.967000000    -2.511000000    -5.082000000
H    -0.124000000    -1.544000000    -4.279000000
O     0.795000000     4.631000000     3.432000000
H     0.397000000     3.970000000     3.998000000
H     0.949000000     4.176000000     2.604000000
O    -3.009000000    -5.835000000     0.777000000
H    -3.229000000    -5.060000000     1.293000000
H    -2.096000000    -5.702000000     0.522000000
O     3.447000000     1.425000000    -5.385000000
H     3.534000000     1.876000000    -4.545000000
H     2.593000000     1.702000000    -5.718000000
O    -3.146000000    -3.420000000     2.067000000
H    -2.637000000    -3.448000000     2.877000000
H    -3.009000000    -2.536000000     1.728000000
O     2.819000000     5.970000000     4.746000000
H     3.453000000     5.844000000     4.040000000
H     2.072000000     5.425000000     4.496000000
O    -5.874000000     1.456000000     1.966000000
H    -5.654000000     0.637000000     2.410000000
H    -5.391000000     1.418000000     1.140000000
O     6.276000000     6.108000000     0.698000000
H     7.107000000     6.241000000     1.153000000
H     6.061000000     5.188000000     0.856000000
O    -5.662000000    -1.754000000     2.740000000
H    -4.797000000    -2.042000000     3.032000000
H    -6.208000000    -1.801000000     3.525000000
O     2.118000000    -3.460000000    -3.801000000
H     2.258000000    -3.991000000    -4.585000000
H     2.118000000    -2.558000000    -4.120000000
O    -3.166000000    -4.835000000    -5.078000000
H    -2.646000000    -4.670000000    -4.292000000
H    -3.919000000    -4.250000000    -4.994000000
O    -4.736000000    -2.108000000    -2.357000000
H    -4.675000000    -1.185000000    -2.111000000
H    -4.841000000    -2.571000000    -1.525000000
O     2.159000000     7.095000000    -1.754000000
H     2.068000000     6.496000000    -2.494000000
H     2.088000000     6.535000000    -0.981000000
O    -2.849000000    -0.367000000     4.157000000
H    -2.609000000    -0.991000000     4.842000000
H    -2.610000000     0.487000000     4.517000000
O     3.914000000     4.446000000     2.379000000
H     3.195000000     3.815000000     2.406000000
H     4.689000000     3.917000000     2.187000000
O     0.862000000    -4.760000000    -1.808000000
H     0.989000000    -4.231000000    -2.595000000
H     1.515000000    -4.431000000    -1.190000000
O    -3.306000000    -1.694000000    -4.853000000
H    -4.103000000    -1.521000000    -4.352000000
H    -2.646000000    -1.897000000    -4.190000000
O     5.590000000     0.024000000    -3.412000000
H     4.756000000     0.491000000    -3.456000000
H     6.134000000     0.559000000    -2.834000000
O    -1.644000000    -3.364000000     4.447000000
H    -1.435000000    -4.298000000     4.470000000
H    -1.149000000    -2.990000000     5.176000000
O    -2.400000000     2.361000000     5.581000000
H    -1.487000000     2.320000000     5.299000000
H    -2.810000000     2.980000000     4.978000000
O    -3.151000000     2.346000000     0.818000000
H    -2.358000000     2.788000000     0.515000000
H    -3.095000000     2.381000000     1.773000000
O     4.627000000    -1.420000000     1.284000000
H     4.894000000    -2.212000000     0.818000000
H     3.816000000    -1.666000000     1.729000000
