161
-3065.11176
C    -0.462000000     1.413000000    -0.072000000
H    -0.936000000     2.388000000    -0.150000000
C    -0.661000000     0.423000000    -1.049000000
H    -1.313000000     0.642000000    -1.890000000
C    -0.025000000    -0.805000000    -0.905000000
C    -0.325000000    -1.870000000    -1.879000000
H    -0.665000000    -1.494000000    -2.846000000
H     0.611000000    -2.393000000    -2.088000000
H    -1.118000000    -2.539000000    -1.538000000
C     0.683000000    -1.096000000     0.238000000
H     1.189000000    -2.057000000     0.280000000
C     0.756000000    -0.210000000     1.253000000
H     1.363000000    -0.556000000     2.086000000
C     0.160000000     1.063000000     1.120000000
C     0.206000000     2.084000000     2.175000000
O     0.579000000     1.755000000     3.288000000
O    -0.034000000     3.259000000     1.977000000
O     2.091000000    -6.573000000    -1.243000000
H     2.088000000    -5.633000000    -1.427000000
H     3.002000000    -6.771000000    -1.026000000
O     1.241000000    -3.470000000     2.523000000
H     0.461000000    -3.439000000     1.968000000
H     1.046000000    -4.147000000     3.171000000
O     5.159000000    -0.226000000     2.378000000
H     4.400000000     0.114000000     2.851000000
H     5.143000000    -1.169000000     2.546000000
O     4.214000000    -3.644000000    -1.585000000
H     3.385000000    -3.765000000    -2.047000000
H     4.146000000    -2.772000000    -1.196000000
O    -2.012000000    -0.715000000    -6.673000000
H    -2.969000000    -0.713000000    -6.695000000
H    -1.752000000    -0.279000000    -7.484000000
O     2.400000000     4.643000000     0.977000000
H     1.946000000     4.808000000     0.150000000
H     1.698000000     4.525000000     1.616000000
O    -5.494000000     1.977000000    -0.547000000
H    -6.231000000     2.475000000    -0.195000000
H    -4.775000000     2.149000000     0.061000000
O    -1.387000000     6.334000000     0.140000000
H    -1.130000000     7.000000000     0.777000000
H    -0.558000000     6.000000000    -0.205000000
O     3.759000000    -2.796000000     2.757000000
H     2.835000000    -3.045000000     2.778000000
H     4.145000000    -3.361000000     2.088000000
O     1.502000000    -3.268000000    -5.592000000
H     0.942000000    -3.976000000    -5.910000000
H     2.295000000    -3.333000000    -6.125000000
O     3.951000000     1.693000000    -0.865000000
H     3.006000000     1.844000000    -0.859000000
H     4.334000000     2.570000000    -0.832000000
O     1.434000000     2.716000000    -1.983000000
H     2.194000000     2.677000000    -2.563000000
H     0.757000000     2.217000000    -2.440000000
O    -2.483000000     1.094000000    -4.264000000
H    -2.928000000     0.257000000    -4.130000000
H    -3.059000000     1.740000000    -3.856000000
O     2.034000000    -1.385000000     5.103000000
H     2.521000000    -2.207000000     5.146000000
H     1.114000000    -1.650000000     5.118000000
O    -2.327000000     4.451000000     2.011000000
H    -1.471000000     4.090000000     2.243000000
H    -2.175000000     4.916000000     1.188000000
O    -2.543000000    -3.417000000    -6.339000000
H    -2.443000000    -2.479000000    -6.499000000
H    -1.690000000    -3.696000000    -6.004000000
O    -0.436000000    -5.704000000    -3.767000000
H    -0.098000000    -6.523000000    -3.406000000
H    -0.313000000    -5.790000000    -4.712000000
O    -4.075000000    -3.341000000    -0.345000000
H    -4.068000000    -2.383000000    -0.350000000
H    -3.413000000    -3.588000000    -0.990000000
O     3.863000000    -4.808000000     0.786000000
H     4.096000000    -4.577000000    -0.113000000
H     3.985000000    -5.756000000     0.829000000
O     0.683000000     5.062000000    -1.071000000
H     0.838000000     4.221000000    -1.501000000
H     0.887000000     5.715000000    -1.740000000
O    -0.409000000     8.317000000     1.785000000
H    -0.992000000     8.803000000     2.367000000
H     0.250000000     7.938000000     2.367000000
O     4.135000000     6.463000000     2.521000000
H     3.991000000     6.433000000     3.467000000
H     3.508000000     5.835000000     2.163000000
O     4.418000000    -1.018000000    -0.037000000
H     4.179000000    -0.147000000    -0.354000000
H     4.644000000    -0.883000000     0.884000000
O     0.739000000    -0.589000000    -5.922000000
H     1.091000000    -1.440000000    -5.663000000
H    -0.140000000    -0.782000000    -6.249000000
O     1.720000000     4.367000000     4.066000000
H     2.222000000     4.036000000     4.811000000
H     1.229000000     3.608000000     3.752000000
O    -1.892000000     4.114000000    -2.447000000
H    -1.424000000     4.445000000    -1.680000000
H    -1.651000000     4.714000000    -3.152000000
O    -3.363000000     3.436000000     6.593000000
H    -3.233000000     4.382000000     6.665000000
H    -2.745000000     3.160000000     5.917000000
O     2.606000000     0.613000000     7.191000000
H     2.294000000    -0.014000000     7.844000000
H     2.526000000     0.150000000     6.357000000
O    -1.600000000    -4.576000000     1.127000000
H    -2.272000000    -3.896000000     1.159000000
H    -1.639000000    -4.910000000     0.231000000
O     3.072000000     0.889000000     3.734000000
H     2.277000000     1.393000000     3.562000000
H     2.757000000     0.061000000     4.097000000
O    -2.641000000    -4.985000000    -2.558000000
H    -2.638000000    -5.734000000    -1.963000000
H    -1.829000000    -5.072000000    -3.058000000
O    -4.267000000    -0.590000000    -0.445000000
H    -4.751000000     0.198000000    -0.197000000
H    -4.203000000    -0.541000000    -1.399000000
O    -4.339000000     2.710000000    -2.755000000
H    -4.766000000     2.334000000    -1.985000000
H    -3.697000000     3.323000000    -2.397000000
O    -3.202000000     5.662000000     4.298000000
H    -4.118000000     5.745000000     4.036000000
H    -2.790000000     5.179000000     3.582000000
O    -2.502000000     2.464000000    -6.847000000
H    -1.790000000     3.038000000    -6.562000000
H    -2.532000000     1.773000000    -6.185000000
O     4.576000000    -3.016000000     5.208000000
H     4.828000000    -3.932000000     5.328000000
H     4.193000000    -2.986000000     4.332000000
O    -1.051000000     2.104000000     5.295000000
H    -1.316000000     1.214000000     5.524000000
H    -0.430000000     1.992000000     4.575000000
O    -2.074000000    -0.326000000     3.568000000
H    -1.431000000    -0.998000000     3.794000000
H    -1.754000000     0.046000000     2.746000000
O     0.130000000     1.681000000    -4.271000000
H    -0.795000000     1.433000000    -4.263000000
H     0.598000000     0.856000000    -4.396000000
O     1.669000000    -4.266000000    -2.926000000
H     0.745000000    -4.514000000    -2.917000000
H     1.832000000    -3.980000000    -3.825000000
O     1.204000000     7.161000000     3.642000000
H     1.910000000     7.595000000     4.122000000
H     1.157000000     6.285000000     4.025000000
O    -4.503000000    -0.780000000    -3.277000000
H    -5.193000000    -0.117000000    -3.298000000
H    -4.953000000    -1.600000000    -3.481000000
O     4.445000000     3.185000000     2.178000000
H     4.109000000     2.336000000     2.463000000
H     3.663000000     3.694000000     1.966000000
O    -0.772000000    -2.064000000     5.300000000
H    -1.403000000    -2.141000000     6.015000000
H    -0.446000000    -2.954000000     5.171000000
O     0.396000000     2.823000000     7.422000000
H     0.916000000     2.063000000     7.162000000
H    -0.178000000     2.988000000     6.674000000
O    -4.389000000     2.703000000     1.838000000
H    -3.630000000     3.272000000     1.710000000
H    -4.180000000     2.200000000     2.626000000
O    -0.525000000     3.860000000    -5.663000000
H     0.285000000     4.052000000    -6.136000000
H    -0.323000000     3.078000000    -5.150000000
O     3.379000000     3.462000000     5.915000000
H     3.587000000     3.757000000     6.801000000
H     3.278000000     2.514000000     5.996000000
