161
-3028.34407
C     0.124000000    -0.552000000    -1.403000000
H     0.278000000    -0.980000000    -2.390000000
C     0.940000000    -0.902000000    -0.330000000
H     1.599000000    -1.761000000    -0.429000000
C     0.734000000    -0.296000000     0.979000000
C     1.670000000    -0.725000000     2.094000000
H     2.351000000     0.092000000     2.343000000
H     1.001000000    -0.924000000     2.934000000
H     2.083000000    -1.696000000     1.811000000
C    -0.297000000     0.595000000     1.175000000
H    -0.616000000     0.952000000     2.151000000
C    -1.141000000     0.881000000     0.066000000
H    -1.925000000     1.610000000     0.254000000
C    -0.905000000     0.399000000    -1.216000000
C    -1.769000000     0.948000000    -2.328000000
O    -2.654000000     1.767000000    -2.219000000
O    -1.475000000     0.596000000    -3.484000000
O     4.420000000     1.354000000     4.986000000
H     5.326000000     1.409000000     5.290000000
H     4.087000000     0.543000000     5.370000000
O    -2.137000000     0.849000000     5.805000000
H    -1.529000000     1.566000000     5.623000000
H    -1.770000000     0.099000000     5.335000000
O    -2.559000000    -4.020000000     4.731000000
H    -1.713000000    -3.657000000     4.993000000
H    -2.339000000    -4.800000000     4.222000000
O    -3.269000000    -3.821000000    -3.136000000
H    -3.185000000    -3.007000000    -3.633000000
H    -2.367000000    -4.083000000    -2.951000000
O     2.816000000     0.494000000    -2.053000000
H     3.234000000     1.083000000    -1.425000000
H     2.101000000     0.088000000    -1.562000000
O    -1.469000000    -0.808000000     3.898000000
H    -2.073000000    -1.546000000     3.979000000
H    -1.025000000    -0.952000000     3.062000000
O     4.427000000     3.026000000     2.892000000
H     4.541000000     2.358000000     3.569000000
H     4.518000000     3.857000000     3.358000000
O     1.549000000    -2.195000000    -5.267000000
H     1.442000000    -1.293000000    -4.965000000
H     2.340000000    -2.176000000    -5.804000000
O    -4.912000000     1.033000000    -0.713000000
H    -5.394000000     1.789000000    -0.380000000
H    -4.191000000     1.411000000    -1.217000000
O     2.398000000     1.173000000    -6.628000000
H     3.109000000     0.543000000    -6.511000000
H     1.813000000     1.014000000    -5.887000000
O     0.303000000     5.463000000     0.425000000
H     0.605000000     4.764000000     1.005000000
H    -0.185000000     5.010000000    -0.262000000
O     0.999000000     0.515000000    -4.372000000
H     1.539000000     0.778000000    -3.627000000
H     0.111000000     0.775000000    -4.128000000
O     1.748000000     3.683000000     1.799000000
H     1.402000000     2.995000000     2.368000000
H     2.540000000     3.985000000     2.244000000
O     3.192000000    -3.545000000    -1.655000000
H     3.599000000    -2.977000000    -2.309000000
H     3.637000000    -3.325000000    -0.837000000
O    -4.357000000    -1.709000000    -1.623000000
H    -4.458000000    -0.833000000    -1.252000000
H    -3.491000000    -1.995000000    -1.332000000
O     3.574000000    -6.201000000    -1.778000000
H     3.329000000    -5.323000000    -2.072000000
H     3.350000000    -6.771000000    -2.513000000
O    -0.163000000    -2.685000000     5.589000000
H     0.533000000    -2.607000000     4.936000000
H     0.232000000    -3.191000000     6.299000000
O    -6.631000000     3.031000000     0.047000000
H    -7.324000000     3.686000000    -0.032000000
H    -5.979000000     3.440000000     0.617000000
O    -0.877000000     3.174000000     4.836000000
H     0.010000000     2.874000000     4.639000000
H    -0.754000000     3.893000000     5.457000000
O    -4.357000000     1.732000000    -4.127000000
H    -4.099000000     0.961000000    -4.632000000
H    -3.659000000     1.840000000    -3.481000000
O     0.952000000     4.789000000    -2.874000000
H     0.782000000     5.325000000    -3.648000000
H     0.122000000     4.785000000    -2.398000000
O     6.259000000     2.117000000     0.721000000
H     7.210000000     2.033000000     0.791000000
H     5.955000000     2.166000000     1.628000000
O    -0.445000000    -3.240000000    -4.014000000
H     0.416000000    -3.053000000    -4.390000000
H    -1.014000000    -2.557000000    -4.367000000
O    -3.584000000     0.096000000    -6.701000000
H    -4.238000000     0.677000000    -7.088000000
H    -3.155000000    -0.316000000    -7.451000000
O     1.535000000     1.781000000     3.835000000
H     2.461000000     1.843000000     4.071000000
H     1.220000000     1.007000000     4.302000000
O    -4.364000000    -0.187000000     4.259000000
H    -3.645000000     0.163000000     4.785000000
H    -5.097000000     0.404000000     4.432000000
O     4.303000000    -2.272000000     0.679000000
H     4.965000000    -1.639000000     0.400000000
H     4.545000000    -2.490000000     1.580000000
O    -5.902000000    -1.598000000    -3.775000000
H    -5.359000000    -1.659000000    -2.989000000
H    -5.834000000    -2.461000000    -4.182000000
O    -1.474000000     5.367000000     2.757000000
H    -1.254000000     4.438000000     2.698000000
H    -2.359000000     5.427000000     2.396000000
O     1.020000000     0.288000000     6.229000000
H     0.420000000    -0.395000000     6.528000000
H     1.892000000    -0.068000000     6.399000000
O    -4.291000000     4.139000000    -5.551000000
H    -4.594000000     3.259000000    -5.326000000
H    -3.363000000     4.027000000    -5.755000000
O     3.498000000    -1.029000000     6.399000000
H     3.758000000    -1.414000000     7.236000000
H     3.332000000    -1.781000000     5.831000000
O     0.521000000    -3.741000000    -1.496000000
H     0.173000000    -3.501000000    -2.355000000
H     1.458000000    -3.553000000    -1.557000000
O    -0.504000000    -4.211000000     1.389000000
H    -0.245000000    -4.278000000     0.470000000
H     0.298000000    -4.394000000     1.878000000
O    -2.139000000    -2.634000000    -0.362000000
H    -1.274000000    -2.225000000    -0.378000000
H    -2.089000000    -3.272000000     0.350000000
O    -3.831000000     3.873000000     4.301000000
H    -3.687000000     4.680000000     4.796000000
H    -2.998000000     3.405000000     4.359000000
O    -1.882000000     2.465000000    -5.930000000
H    -1.873000000     2.089000000    -5.050000000
H    -2.341000000     1.816000000    -6.463000000
O     3.445000000     1.729000000     0.310000000
H     2.797000000     1.974000000     0.972000000
H     4.284000000     1.993000000     0.688000000
O     1.277000000    -5.413000000     3.386000000
H     1.651000000    -5.859000000     4.146000000
H     0.563000000    -5.983000000     3.101000000
O     5.459000000    -4.698000000     2.624000000
H     4.762000000    -5.306000000     2.872000000
H     5.747000000    -5.003000000     1.763000000
O     6.037000000    -0.561000000    -0.508000000
H     5.679000000    -0.497000000    -1.393000000
H     6.266000000     0.340000000    -0.277000000
O    -2.211000000    -1.445000000    -4.915000000
H    -1.975000000    -0.729000000    -4.326000000
H    -2.791000000    -1.043000000    -5.562000000
O    -7.072000000    -0.607000000    -0.011000000
H    -6.321000000    -0.015000000    -0.066000000
H    -6.845000000    -1.215000000     0.693000000
O    -7.302000000     1.686000000    -3.678000000
H    -6.413000000     1.582000000    -4.018000000
H    -7.447000000     0.904000000    -3.146000000
O    -1.322000000     4.263000000    -1.470000000
H    -1.830000000     3.534000000    -1.825000000
H    -1.782000000     5.046000000    -1.774000000
O     2.694000000    -3.340000000     4.779000000
H     2.556000000    -3.998000000     5.461000000
H     2.589000000    -3.820000000     3.958000000
O     0.106000000    -6.462000000    -1.466000000
H    -0.808000000    -6.498000000    -1.747000000
H     0.257000000    -5.539000000    -1.261000000
O     4.785000000    -1.080000000    -3.073000000
H     4.123000000    -0.397000000    -2.971000000
H     4.737000000    -1.325000000    -3.997000000
