161
-3042.28017
C     1.108000000     0.907000000    -0.242000000
H     1.845000000     1.677000000    -0.454000000
C     0.576000000     0.633000000     1.035000000
H     0.856000000     1.354000000     1.799000000
C    -0.426000000    -0.340000000     1.162000000
C    -1.296000000    -0.332000000     2.390000000
H    -2.147000000     0.349000000     2.334000000
H    -1.809000000    -1.246000000     2.698000000
H    -0.723000000     0.049000000     3.237000000
C    -0.836000000    -1.023000000    -0.029000000
H    -1.557000000    -1.832000000     0.062000000
C    -0.225000000    -0.824000000    -1.236000000
H    -0.555000000    -1.340000000    -2.134000000
C     0.793000000     0.150000000    -1.369000000
C     1.336000000     0.525000000    -2.730000000
O     0.597000000     0.318000000    -3.703000000
O     2.464000000     0.979000000    -2.828000000
O     0.102000000    -3.065000000     3.496000000
H     0.942000000    -2.794000000     3.127000000
H     0.007000000    -2.537000000     4.288000000
O     1.235000000    -2.149000000     6.220000000
H     1.983000000    -2.555000000     5.783000000
H     1.605000000    -1.394000000     6.678000000
O     0.246000000     5.642000000    -1.213000000
H     1.128000000     6.009000000    -1.154000000
H    -0.107000000     5.995000000    -2.029000000
O    -2.450000000     1.286000000    -1.266000000
H    -2.406000000     2.228000000    -1.102000000
H    -1.539000000     0.995000000    -1.233000000
O     3.552000000    -0.518000000    -4.840000000
H     3.087000000     0.009000000    -4.190000000
H     3.082000000    -0.358000000    -5.658000000
O    -0.373000000     2.503000000    -7.944000000
H    -0.927000000     3.260000000    -8.130000000
H    -0.600000000     2.253000000    -7.048000000
O     1.855000000     1.237000000    -5.995000000
H     1.407000000     1.186000000    -5.151000000
H     2.064000000     2.165000000    -6.101000000
O    -1.430000000    -3.051000000     6.312000000
H    -0.573000000    -2.629000000     6.249000000
H    -2.048000000    -2.385000000     6.011000000
O     0.274000000    -3.793000000    -3.860000000
H    -0.180000000    -3.077000000    -4.304000000
H     0.133000000    -4.553000000    -4.426000000
O     1.015000000     1.269000000     6.928000000
H     1.546000000     0.794000000     7.568000000
H     0.968000000     2.162000000     7.272000000
O    -5.519000000     2.756000000     0.152000000
H    -4.842000000     2.878000000     0.818000000
H    -5.382000000     1.864000000    -0.169000000
O     4.684000000    -0.091000000    -1.590000000
H     4.831000000    -1.013000000    -1.802000000
H     3.871000000     0.132000000    -2.043000000
O     1.239000000     4.982000000     1.642000000
H     1.254000000     5.937000000     1.702000000
H     0.729000000     4.799000000     0.853000000
O    -2.101000000     3.991000000    -0.725000000
H    -1.305000000     4.520000000    -0.781000000
H    -2.705000000     4.522000000    -0.206000000
O    -3.341000000    -0.948000000     5.350000000
H    -4.080000000    -0.339000000     5.360000000
H    -2.586000000    -0.404000000     5.126000000
O    -3.111000000     0.656000000    -3.923000000
H    -2.195000000     0.857000000    -4.117000000
H    -3.229000000     0.932000000    -3.014000000
O    -4.985000000     0.325000000    -0.777000000
H    -5.539000000     0.492000000    -1.540000000
H    -4.101000000     0.549000000    -1.069000000
O    -0.677000000    -1.702000000    -4.969000000
H    -1.185000000    -1.247000000    -5.641000000
H    -0.101000000    -1.028000000    -4.607000000
O     5.031000000     2.652000000    -1.295000000
H     5.007000000     1.695000000    -1.268000000
H     4.286000000     2.895000000    -1.845000000
O     2.151000000    -2.351000000     0.677000000
H     1.349000000    -1.829000000     0.642000000
H     2.846000000    -1.713000000     0.833000000
O    -3.452000000     2.924000000     2.431000000
H    -2.515000000     3.067000000     2.563000000
H    -3.862000000     3.277000000     3.221000000
O    -5.202000000     0.567000000     4.186000000
H    -5.420000000     0.082000000     3.390000000
H    -4.752000000     1.352000000     3.873000000
O    -0.797000000     2.292000000    -5.029000000
H    -0.322000000     1.592000000    -4.581000000
H    -0.932000000     2.959000000    -4.356000000
O    -0.055000000    -5.576000000    -0.675000000
H    -0.744000000    -5.231000000    -1.243000000
H     0.760000000    -5.285000000    -1.083000000
O     5.954000000    -0.617000000    -6.232000000
H     5.295000000    -0.620000000    -5.538000000
H     6.579000000    -1.293000000    -5.972000000
O    -3.460000000    -5.531000000     3.185000000
H    -4.319000000    -5.199000000     2.925000000
H    -2.836000000    -4.957000000     2.741000000
O    -5.508000000    -1.057000000     1.638000000
H    -6.216000000    -1.264000000     1.027000000
H    -4.938000000    -0.462000000     1.150000000
O    -6.599000000    -3.693000000     0.025000000
H    -5.815000000    -3.148000000     0.084000000
H    -7.322000000    -3.093000000     0.205000000
O     2.447000000    -4.087000000    -1.507000000
H     3.173000000    -3.502000000    -1.726000000
H     2.106000000    -3.745000000    -0.681000000
O    -1.168000000     1.022000000     5.524000000
H    -0.513000000     1.179000000     6.205000000
H    -0.853000000     1.520000000     4.770000000
O     7.524000000    -0.943000000    -2.458000000
H     7.764000000    -1.185000000    -1.564000000
H     6.705000000    -0.456000000    -2.363000000
O    -4.492000000    -2.876000000     3.457000000
H    -4.116000000    -2.266000000     4.092000000
H    -4.674000000    -2.338000000     2.686000000
O     4.958000000    -2.725000000    -2.175000000
H     5.307000000    -3.367000000    -1.557000000
H     5.167000000    -3.085000000    -3.037000000
O     2.658000000    -3.077000000    -4.707000000
H     2.057000000    -3.664000000    -4.249000000
H     2.536000000    -2.229000000    -4.280000000
O    -3.144000000    -5.438000000    -1.827000000
H    -3.132000000    -6.223000000    -1.279000000
H    -2.527000000    -5.630000000    -2.533000000
O     4.008000000    -0.447000000     4.481000000
H     4.289000000    -0.435000000     5.396000000
H     3.814000000    -1.367000000     4.302000000
O     2.666000000     3.897000000    -6.238000000
H     3.438000000     4.025000000    -5.687000000
H     2.913000000     4.269000000    -7.085000000
O     1.885000000     1.416000000     4.071000000
H     2.550000000     0.755000000     3.879000000
H     1.645000000     1.256000000     4.983000000
O    -3.692000000    -3.266000000    -0.268000000
H    -3.176000000    -3.392000000     0.528000000
H    -3.647000000    -4.109000000    -0.719000000
O    -3.517000000    -1.744000000    -5.285000000
H    -2.962000000    -2.349000000    -4.793000000
H    -3.681000000    -1.022000000    -4.678000000
O    -4.341000000    -1.824000000    -2.584000000
H    -4.084000000    -2.133000000    -1.716000000
H    -4.331000000    -0.870000000    -2.511000000
O     2.810000000     3.687000000    -2.788000000
H     3.400000000     3.785000000    -3.536000000
H     2.295000000     2.905000000    -2.991000000
O    -1.475000000    -4.334000000     1.611000000
H    -0.906000000    -4.637000000     0.904000000
H    -0.894000000    -3.843000000     2.193000000
O     3.314000000     3.112000000     2.322000000
H     2.784000000     2.770000000     3.041000000
H     2.757000000     3.771000000     1.906000000
O    -0.816000000     3.129000000     3.186000000
H    -0.523000000     2.564000000     2.471000000
H    -0.319000000     3.938000000     3.071000000
O     4.929000000     5.574000000    -0.873000000
H     5.390000000     5.980000000    -1.607000000
H     5.122000000     4.640000000    -0.955000000
O     4.316000000    -0.741000000     1.245000000
H     4.574000000    -0.512000000     0.352000000
H     4.085000000     0.096000000     1.649000000
O     1.244000000    -0.361000000    -7.859000000
H     2.147000000    -0.297000000    -8.170000000
H     1.138000000     0.390000000    -7.275000000
