161
-3030.11711
C     0.985000000     0.543000000    -0.945000000
H     1.690000000     1.013000000    -1.626000000
C     0.231000000     1.343000000    -0.093000000
H     0.403000000     2.414000000    -0.163000000
C    -0.714000000     0.720000000     0.738000000
C    -1.484000000     1.516000000     1.806000000
H    -2.562000000     1.600000000     1.655000000
H    -1.459000000     0.846000000     2.668000000
H    -0.896000000     2.423000000     1.962000000
C    -0.754000000    -0.617000000     0.745000000
H    -1.415000000    -1.154000000     1.420000000
C    -0.068000000    -1.442000000    -0.153000000
H    -0.322000000    -2.496000000    -0.220000000
C     0.891000000    -0.862000000    -0.962000000
C     1.688000000    -1.743000000    -1.957000000
O     1.636000000    -2.924000000    -1.904000000
O     2.147000000    -1.175000000    -2.966000000
O     4.052000000    -6.963000000    -0.310000000
H     4.040000000    -6.251000000    -0.951000000
H     4.027000000    -7.761000000    -0.838000000
O    -5.373000000     3.108000000     2.598000000
H    -6.036000000     2.665000000     3.128000000
H    -4.841000000     3.589000000     3.232000000
O    -3.598000000    -2.929000000    -1.894000000
H    -3.541000000    -2.035000000    -1.557000000
H    -4.518000000    -3.036000000    -2.136000000
O    -6.184000000    -0.383000000     2.524000000
H    -7.068000000    -0.701000000     2.702000000
H    -6.265000000     0.571000000     2.538000000
O    -0.847000000     4.777000000     0.440000000
H    -0.858000000     4.312000000    -0.397000000
H    -1.526000000     5.446000000     0.352000000
O    -3.207000000     2.258000000     4.654000000
H    -3.659000000     1.439000000     4.450000000
H    -2.310000000     2.118000000     4.348000000
O     0.303000000     6.194000000     2.606000000
H    -0.308000000     5.629000000     2.133000000
H     1.163000000     5.965000000     2.253000000
O     4.300000000     0.607000000    -2.507000000
H     4.496000000     0.951000000    -3.378000000
H     3.760000000    -0.166000000    -2.671000000
O     3.817000000    -4.124000000    -1.440000000
H     3.087000000    -3.582000000    -1.740000000
H     3.924000000    -3.892000000    -0.517000000
O     1.686000000     4.158000000     1.232000000
H     2.315000000     3.892000000     0.562000000
H     0.847000000     4.197000000     0.771000000
O    -0.098000000    -6.200000000     3.258000000
H    -0.730000000    -6.036000000     2.557000000
H     0.592000000    -5.553000000     3.115000000
O     5.187000000     0.542000000    -6.026000000
H     5.573000000     0.744000000    -6.878000000
H     4.245000000     0.650000000    -6.157000000
O    -2.071000000     5.174000000     6.838000000
H    -1.454000000     4.606000000     7.300000000
H    -2.083000000     4.837000000     5.942000000
O     3.730000000    -4.945000000    -5.215000000
H     3.728000000    -3.995000000    -5.096000000
H     4.155000000    -5.283000000    -4.427000000
O    -3.604000000    -0.362000000    -0.772000000
H    -2.893000000    -0.199000000    -0.152000000
H    -3.511000000     0.327000000    -1.430000000
O    -4.606000000    -0.068000000     4.712000000
H    -5.172000000     0.033000000     3.947000000
H    -5.174000000     0.127000000     5.458000000
O    -1.238000000    -3.150000000    -3.799000000
H    -0.394000000    -3.479000000    -4.111000000
H    -1.420000000    -3.667000000    -3.014000000
O     1.196000000    -4.084000000    -4.084000000
H     2.048000000    -4.319000000    -4.451000000
H     1.402000000    -3.507000000    -3.349000000
O    -3.154000000    -5.611000000    -1.330000000
H    -2.619000000    -5.925000000    -2.059000000
H    -3.207000000    -4.664000000    -1.461000000
O     0.269000000    -5.125000000    -1.111000000
H     0.521000000    -5.571000000    -1.919000000
H     0.724000000    -4.283000000    -1.151000000
O    -0.203000000     0.101000000     5.791000000
H     0.342000000     0.128000000     6.577000000
H     0.416000000     0.196000000     5.067000000
O     5.820000000    -0.725000000    -0.920000000
H     6.658000000    -0.665000000    -1.378000000
H     5.213000000    -0.225000000    -1.465000000
O     0.559000000     0.784000000    -4.703000000
H     1.119000000     0.261000000    -4.130000000
H     0.480000000     1.627000000    -4.257000000
O    -1.598000000    -5.790000000     0.997000000
H    -2.210000000    -5.965000000     0.282000000
H    -0.822000000    -5.433000000     0.567000000
O     3.544000000    -2.162000000     2.961000000
H     2.993000000    -1.380000000     2.998000000
H     4.077000000    -2.117000000     3.755000000
O     5.485000000    -5.244000000    -3.190000000
H     4.950000000    -4.844000000    -2.505000000
H     6.122000000    -5.778000000    -2.716000000
O    -2.053000000    -0.599000000    -4.593000000
H    -1.224000000    -0.204000000    -4.862000000
H    -1.798000000    -1.367000000    -4.082000000
O    -2.448000000    -1.667000000     5.358000000
H    -1.834000000    -0.934000000     5.313000000
H    -3.308000000    -1.269000000     5.227000000
O    -3.361000000     2.091000000    -1.999000000
H    -3.968000000     2.032000000    -1.262000000
H    -2.756000000     2.792000000    -1.756000000
O    -3.840000000    -4.210000000     1.704000000
H    -3.161000000    -4.487000000     1.090000000
H    -4.271000000    -3.474000000     1.269000000
O     2.008000000    -6.765000000    -2.950000000
H     1.343000000    -7.088000000    -3.559000000
H     2.560000000    -6.191000000    -3.481000000
O     0.432000000    -2.341000000     3.907000000
H    -0.471000000    -2.127000000     4.143000000
H     0.808000000    -1.509000000     3.619000000
O     1.604000000    -0.101000000     2.871000000
H     1.820000000     0.808000000     3.081000000
H     1.509000000    -0.111000000     1.919000000
O     2.516000000     0.201000000    -6.586000000
H     2.255000000    -0.140000000    -7.442000000
H     1.694000000     0.291000000    -6.104000000
O     4.796000000    -2.730000000     0.624000000
H     4.310000000    -2.225000000     1.276000000
H     5.111000000    -2.077000000     0.000000000
O     3.899000000     4.238000000    -3.090000000
H     4.343000000     5.023000000    -3.410000000
H     4.539000000     3.536000000    -3.207000000
O    -0.527000000     3.300000000     5.039000000
H    -0.422000000     3.010000000     5.945000000
H     0.229000000     2.932000000     4.581000000
O    -3.014000000     5.781000000     3.940000000
H    -2.363000000     5.080000000     3.978000000
H    -2.790000000     6.356000000     4.671000000
O     2.024000000     2.630000000     3.505000000
H     2.076000000     3.254000000     2.781000000
H     2.919000000     2.307000000     3.607000000
O     1.599000000     5.325000000     5.725000000
H     1.252000000     5.115000000     4.858000000
H     1.085000000     4.785000000     6.325000000
O    -5.176000000     2.267000000     0.097000000
H    -5.110000000     2.642000000     0.975000000
H    -6.019000000     1.813000000     0.093000000
O    -5.025000000    -1.969000000     0.668000000
H    -5.543000000    -1.413000000     1.250000000
H    -4.568000000    -1.354000000     0.094000000
O    -0.993000000     4.103000000    -2.214000000
H    -0.885000000     4.894000000    -2.743000000
H    -0.357000000     3.485000000    -2.576000000
O     1.267000000     3.509000000    -3.745000000
H     2.174000000     3.518000000    -3.440000000
H     1.157000000     4.349000000    -4.192000000
O     3.925000000     3.126000000    -0.314000000
H     4.764000000     2.669000000    -0.259000000
H     3.829000000     3.339000000    -1.242000000
O    -3.841000000    -4.050000000     4.759000000
H    -4.318000000    -3.757000000     3.982000000
H    -3.247000000    -3.327000000     4.962000000
O     3.545000000    -2.273000000    -5.045000000
H     3.262000000    -1.964000000    -4.185000000
H     3.252000000    -1.594000000    -5.652000000
O     1.905000000    -4.392000000     3.198000000
H     1.294000000    -3.799000000     3.635000000
H     2.631000000    -3.831000000     2.925000000
