161
-3054.31530
C     1.326000000     0.468000000    -0.731000000
H     2.286000000     0.756000000    -1.154000000
C     0.636000000     1.194000000     0.267000000
H     0.963000000     2.191000000     0.554000000
C    -0.514000000     0.684000000     0.869000000
C    -1.269000000     1.391000000     1.981000000
H    -1.041000000     0.775000000     2.853000000
H    -0.873000000     2.404000000     2.085000000
H    -2.348000000     1.333000000     1.823000000
C    -1.077000000    -0.492000000     0.436000000
H    -1.986000000    -0.866000000     0.899000000
C    -0.404000000    -1.247000000    -0.487000000
H    -0.874000000    -2.137000000    -0.899000000
C     0.783000000    -0.821000000    -1.051000000
C     1.301000000    -1.679000000    -2.155000000
O     0.818000000    -2.722000000    -2.489000000
O     2.269000000    -1.228000000    -2.795000000
O    -5.467000000     0.236000000     1.883000000
H    -6.348000000    -0.035000000     2.139000000
H    -4.932000000     0.078000000     2.660000000
O     1.354000000    -3.735000000    -6.990000000
H     1.037000000    -4.488000000    -7.489000000
H     0.877000000    -2.989000000    -7.353000000
O    -0.942000000     4.318000000    -0.825000000
H    -1.168000000     3.502000000    -1.271000000
H    -1.689000000     4.492000000    -0.252000000
O    -4.183000000    -0.330000000     4.224000000
H    -4.819000000    -0.005000000     4.861000000
H    -3.737000000    -1.047000000     4.675000000
O     3.009000000    -1.295000000    -5.265000000
H     2.550000000    -1.982000000    -5.748000000
H     2.564000000    -1.261000000    -4.418000000
O     2.347000000    -4.939000000    -3.345000000
H     1.707000000    -4.232000000    -3.265000000
H     2.887000000    -4.865000000    -2.558000000
O     2.621000000     7.006000000    -0.260000000
H     2.503000000     6.056000000    -0.260000000
H     3.495000000     7.139000000    -0.625000000
O     5.293000000    -0.361000000    -6.326000000
H     5.397000000     0.588000000    -6.263000000
H     4.406000000    -0.526000000    -6.007000000
O     1.807000000     5.218000000    -2.779000000
H     1.764000000     4.751000000    -1.945000000
H     1.475000000     4.592000000    -3.422000000
O    -3.491000000     2.896000000     4.795000000
H    -3.065000000     3.595000000     5.291000000
H    -3.625000000     3.269000000     3.923000000
O    -1.623000000     5.905000000     3.057000000
H    -1.305000000     6.714000000     3.459000000
H    -0.968000000     5.248000000     3.292000000
O    -0.460000000    -2.201000000     5.278000000
H    -0.652000000    -1.267000000     5.190000000
H     0.118000000    -2.256000000     6.039000000
O    -4.503000000     4.774000000     3.006000000
H    -3.722000000     5.325000000     2.945000000
H    -5.079000000     5.098000000     2.314000000
O    -4.237000000    -1.797000000    -2.559000000
H    -3.465000000    -2.323000000    -2.768000000
H    -4.977000000    -2.384000000    -2.717000000
O    -1.751000000    -2.593000000    -3.617000000
H    -1.713000000    -1.804000000    -4.157000000
H    -0.923000000    -2.595000000    -3.136000000
O    -2.702000000    -4.603000000    -0.834000000
H    -2.321000000    -3.865000000    -0.358000000
H    -1.948000000    -5.121000000    -1.116000000
O     0.023000000    -5.385000000    -1.690000000
H     0.645000000    -5.864000000    -1.142000000
H     0.343000000    -4.483000000    -1.684000000
O     2.957000000    -6.077000000    -0.701000000
H     2.690000000    -6.565000000     0.078000000
H     3.733000000    -5.590000000    -0.425000000
O    -6.471000000     2.442000000     0.605000000
H    -5.993000000     3.266000000     0.704000000
H    -6.061000000     1.850000000     1.235000000
O    -3.832000000     1.746000000     7.106000000
H    -3.608000000     2.449000000     7.716000000
H    -3.677000000     2.123000000     6.239000000
O    -2.967000000    -2.116000000     6.412000000
H    -3.342000000    -1.747000000     7.212000000
H    -2.027000000    -1.952000000     6.491000000
O     1.499000000     0.966000000    -4.136000000
H     1.831000000     0.265000000    -3.575000000
H     2.082000000     0.962000000    -4.895000000
O     5.283000000    -3.610000000    -2.367000000
H     4.755000000    -2.814000000    -2.420000000
H     5.743000000    -3.648000000    -3.205000000
O     3.613000000    -5.484000000    -5.734000000
H     3.240000000    -4.941000000    -5.039000000
H     3.377000000    -5.032000000    -6.544000000
O    -4.887000000     0.882000000    -1.870000000
H    -4.722000000    -0.044000000    -1.696000000
H    -5.611000000     1.110000000    -1.287000000
O    -3.976000000    -3.951000000     2.006000000
H    -4.314000000    -3.731000000     2.874000000
H    -4.255000000    -3.224000000     1.449000000
O    -1.213000000    -4.218000000     2.257000000
H    -0.984000000    -3.532000000     2.884000000
H    -2.100000000    -3.997000000     1.974000000
O    -1.420000000     0.333000000     5.617000000
H    -1.239000000     1.100000000     5.073000000
H    -2.295000000     0.491000000     5.971000000
O     0.797000000    -7.355000000    -3.461000000
H     0.162000000    -6.815000000    -2.990000000
H     1.438000000    -6.729000000    -3.800000000
O    -0.091000000    -0.846000000    -7.052000000
H    -0.932000000    -1.142000000    -7.400000000
H    -0.319000000    -0.351000000    -6.265000000
O    -4.272000000    -5.731000000    -3.069000000
H    -3.437000000    -5.337000000    -2.818000000
H    -4.762000000    -5.798000000    -2.249000000
O     1.105000000     2.552000000     5.390000000
H     1.245000000     3.228000000     4.727000000
H     1.192000000     1.727000000     4.913000000
O     0.434000000     3.452000000    -4.450000000
H     0.435000000     3.701000000    -5.375000000
H     0.632000000     2.516000000    -4.454000000
O    -1.353000000     4.003000000     6.132000000
H    -0.454000000     3.756000000     5.917000000
H    -1.446000000     3.784000000     7.059000000
O     0.731000000     4.343000000     3.251000000
H     1.402000000     3.796000000     2.841000000
H     0.980000000     5.238000000     3.021000000
O     1.897000000     0.545000000     3.892000000
H     1.534000000    -0.341000000     3.889000000
H     2.824000000     0.424000000     4.098000000
O     6.929000000    -0.545000000    -1.079000000
H     6.060000000    -0.382000000    -1.446000000
H     7.516000000    -0.524000000    -1.834000000
O    -4.177000000    -1.781000000     0.248000000
H    -4.733000000    -1.066000000     0.559000000
H    -4.433000000    -1.902000000    -0.667000000
O    -1.245000000     0.020000000    -4.675000000
H    -0.553000000     0.236000000    -4.050000000
H    -1.834000000     0.774000000    -4.651000000
O    -2.067000000     1.992000000    -1.747000000
H    -2.802000000     1.440000000    -2.012000000
H    -1.645000000     1.507000000    -1.038000000
O     4.339000000     3.026000000    -1.635000000
H     4.568000000     3.619000000    -0.919000000
H     4.500000000     3.536000000    -2.429000000
O    -0.422000000     7.012000000    -1.194000000
H     0.506000000     7.155000000    -1.007000000
H    -0.457000000     6.135000000    -1.575000000
O     7.051000000     0.441000000    -3.836000000
H     6.133000000     0.353000000    -3.581000000
H     7.252000000     1.365000000    -3.691000000
O     2.889000000     3.161000000     2.172000000
H     2.822000000     2.242000000     2.429000000
H     3.805000000     3.388000000     2.330000000
O     6.425000000    -3.004000000    -4.885000000
H     7.316000000    -2.698000000    -5.051000000
H     5.864000000    -2.342000000    -5.290000000
O     4.687000000     0.183000000    -2.481000000
H     4.441000000     1.055000000    -2.174000000
H     3.889000000    -0.166000000    -2.877000000
O     1.859000000     4.391000000     0.019000000
H     2.048000000     3.828000000     0.770000000
H     0.904000000     4.425000000    -0.020000000
O    -0.714000000    -4.837000000    -4.896000000
H    -0.488000000    -4.331000000    -4.116000000
H    -0.169000000    -4.466000000    -5.589000000
