161
-3081.64428
C    -0.412000000    -0.103000000    -1.436000000
H    -0.922000000    -0.206000000    -2.391000000
C    -0.851000000     0.859000000    -0.512000000
H    -1.626000000     1.570000000    -0.786000000
C    -0.392000000     0.846000000     0.800000000
C    -0.962000000     1.817000000     1.833000000
H    -0.247000000     2.579000000     2.151000000
H    -1.865000000     2.246000000     1.394000000
H    -1.263000000     1.270000000     2.729000000
C     0.603000000    -0.033000000     1.187000000
H     1.072000000    -0.124000000     2.164000000
C     0.996000000    -0.998000000     0.273000000
H     1.761000000    -1.709000000     0.575000000
C     0.535000000    -1.044000000    -1.037000000
C     1.020000000    -2.088000000    -2.018000000
O     1.767000000    -2.977000000    -1.718000000
O     0.787000000    -1.912000000    -3.204000000
O    -3.280000000    -3.806000000    -2.814000000
H    -2.549000000    -3.501000000    -3.352000000
H    -2.875000000    -4.071000000    -1.988000000
O    -1.410000000    -4.658000000    -0.885000000
H    -0.545000000    -4.820000000    -0.508000000
H    -2.004000000    -4.665000000    -0.134000000
O    -1.437000000    -1.374000000     3.245000000
H    -2.313000000    -1.049000000     3.455000000
H    -0.883000000    -1.041000000     3.951000000
O    -3.921000000     2.530000000    -0.512000000
H    -4.048000000     1.583000000    -0.572000000
H    -4.100000000     2.738000000     0.405000000
O     2.713000000    -4.322000000    -4.054000000
H     1.938000000    -4.883000000    -4.050000000
H     2.620000000    -3.778000000    -3.272000000
O     4.187000000    -2.350000000    -0.283000000
H     3.368000000    -2.581000000    -0.720000000
H     4.865000000    -2.787000000    -0.798000000
O    -1.063000000    -2.838000000    -4.800000000
H    -0.745000000    -3.698000000    -5.074000000
H    -0.500000000    -2.598000000    -4.064000000
O     4.146000000     0.399000000     0.239000000
H     4.294000000    -0.540000000     0.356000000
H     4.932000000     0.711000000    -0.210000000
O     1.176000000    -4.456000000     0.292000000
H     1.940000000    -4.965000000     0.563000000
H     1.519000000    -3.827000000    -0.342000000
O    -0.236000000    -0.778000000     5.566000000
H    -0.048000000     0.159000000     5.619000000
H    -1.091000000    -0.875000000     5.984000000
O    -2.482000000     3.677000000     4.303000000
H    -3.250000000     3.424000000     4.815000000
H    -1.784000000     3.103000000     4.620000000
O    -2.330000000    -1.949000000     0.442000000
H    -2.034000000    -1.828000000     1.345000000
H    -1.656000000    -1.524000000    -0.089000000
O    -0.448000000     6.691000000     4.061000000
H     0.117000000     6.032000000     4.464000000
H    -0.689000000     6.315000000     3.215000000
O    -6.026000000     0.128000000     1.727000000
H    -5.953000000     1.082000000     1.735000000
H    -5.502000000    -0.146000000     0.974000000
O     0.105000000     3.981000000    -1.517000000
H     0.467000000     4.580000000    -2.171000000
H     0.073000000     3.133000000    -1.961000000
O     2.705000000     2.165000000     2.021000000
H     3.086000000     1.413000000     1.567000000
H     3.449000000     2.584000000     2.455000000
O     2.284000000     1.644000000    -1.045000000
H     2.980000000     1.180000000    -0.581000000
H     1.538000000     1.617000000    -0.445000000
O    -0.945000000    -3.958000000     3.447000000
H    -1.691000000    -3.979000000     4.046000000
H    -0.913000000    -3.053000000     3.137000000
O     6.078000000    -3.714000000    -1.680000000
H     6.378000000    -3.222000000    -2.444000000
H     6.009000000    -4.617000000    -1.989000000
O     0.261000000    -0.024000000    -4.798000000
H     0.388000000    -0.800000000    -4.251000000
H     1.120000000     0.137000000    -5.188000000
O    -0.263000000    -5.222000000    -5.927000000
H     0.317000000    -4.602000000    -6.368000000
H    -0.315000000    -5.968000000    -6.524000000
O    -2.847000000     5.542000000     2.252000000
H    -2.057000000     5.407000000     1.729000000
H    -2.632000000     5.178000000     3.111000000
O    -4.423000000    -0.350000000    -0.481000000
H    -4.836000000    -1.000000000    -1.049000000
H    -3.614000000    -0.769000000    -0.187000000
O    -2.918000000    -1.869000000    -6.244000000
H    -3.307000000    -2.724000000    -6.426000000
H    -2.099000000    -2.069000000    -5.791000000
O    -4.210000000     2.354000000     2.332000000
H    -4.718000000     2.816000000     2.999000000
H    -3.311000000     2.655000000     2.465000000
O     4.488000000    -1.268000000     3.571000000
H     4.847000000    -2.109000000     3.854000000
H     4.441000000    -0.746000000     4.371000000
O     0.912000000    -7.843000000    -1.446000000
H     0.776000000    -6.898000000    -1.522000000
H     0.679000000    -8.189000000    -2.307000000
O     1.878000000     1.942000000     4.716000000
H     2.661000000     1.546000000     5.098000000
H     2.049000000     1.950000000     3.774000000
O    -5.055000000     6.320000000     0.923000000
H    -5.675000000     5.593000000     0.866000000
H    -4.409000000     6.033000000     1.568000000
O     1.272000000     2.127000000    -3.419000000
H     1.777000000     1.873000000    -2.646000000
H     0.744000000     1.355000000    -3.624000000
O    -1.921000000     1.524000000    -4.351000000
H    -1.290000000     0.933000000    -4.762000000
H    -2.708000000     0.992000000    -4.235000000
O    -0.609000000     1.928000000     5.796000000
H    -0.140000000     2.077000000     6.617000000
H     0.073000000     1.942000000     5.124000000
O     4.693000000    -4.073000000     2.651000000
H     4.179000000    -4.768000000     2.239000000
H     4.655000000    -3.347000000     2.030000000
O    -4.179000000     0.828000000     6.506000000
H    -4.302000000     1.751000000     6.282000000
H    -4.013000000     0.399000000     5.667000000
O    -2.833000000     4.183000000    -4.261000000
H    -2.268000000     3.416000000    -4.173000000
H    -2.711000000     4.665000000    -3.443000000
O    -3.444000000     4.967000000    -1.423000000
H    -3.325000000     4.021000000    -1.339000000
H    -3.721000000     5.252000000    -0.553000000
O     1.113000000     4.635000000     5.214000000
H     1.370000000     3.713000000     5.225000000
H     1.942000000     5.114000000     5.197000000
O    -0.549000000     4.927000000     0.900000000
H    -0.455000000     4.385000000     0.116000000
H     0.281000000     4.821000000     1.364000000
O     4.463000000     0.826000000    -3.768000000
H     3.930000000     1.454000000    -4.255000000
H     4.030000000    -0.016000000    -3.909000000
O     3.361000000    -1.514000000    -4.169000000
H     2.676000000    -1.592000000    -3.504000000
H     3.614000000    -2.418000000    -4.359000000
O     0.054000000    -5.590000000    -3.169000000
H    -0.534000000    -4.948000000    -2.771000000
H    -0.285000000    -5.708000000    -4.057000000
O    -5.902000000     3.409000000    -2.237000000
H    -5.493000000     3.316000000    -3.097000000
H    -5.169000000     3.418000000    -1.622000000
O     3.154000000    -6.097000000     1.274000000
H     3.698000000    -6.820000000     0.961000000
H     2.372000000    -6.522000000     1.628000000
O     2.861000000     4.637000000    -0.916000000
H     2.303000000     3.870000000    -1.049000000
H     3.743000000     4.331000000    -1.125000000
O    -1.598000000     6.967000000    -0.831000000
H    -2.309000000     6.401000000    -1.131000000
H    -1.199000000     6.486000000    -0.106000000
O    -4.015000000    -0.534000000     3.930000000
H    -4.337000000    -0.240000000     3.078000000
H    -4.436000000    -1.384000000     4.065000000
O     2.151000000     4.755000000     1.721000000
H     2.306000000     4.659000000     0.782000000
H     2.212000000     3.865000000     2.067000000
O    -3.658000000    -0.418000000    -3.890000000
H    -3.712000000    -1.104000000    -4.555000000
H    -4.239000000    -0.716000000    -3.191000000
