161
-3070.01928
C    -0.099000000     0.293000000    -1.392000000
H    -0.218000000     0.628000000    -2.419000000
C    -0.625000000     1.102000000    -0.443000000
H    -1.183000000     2.026000000    -0.577000000
C    -0.459000000     0.686000000     0.885000000
C    -1.210000000     1.377000000     1.988000000
H    -0.718000000     1.164000000     2.940000000
H    -1.215000000     2.454000000     1.810000000
H    -2.295000000     1.259000000     1.952000000
C     0.348000000    -0.465000000     1.193000000
H     0.600000000    -0.770000000     2.205000000
C     0.919000000    -1.169000000     0.190000000
H     1.507000000    -2.066000000     0.364000000
C     0.638000000    -0.821000000    -1.101000000
C     1.213000000    -1.662000000    -2.249000000
O     2.106000000    -2.466000000    -2.006000000
O     0.688000000    -1.574000000    -3.332000000
O    -1.553000000    -5.532000000    -2.255000000
H    -0.904000000    -5.071000000    -2.788000000
H    -1.418000000    -5.194000000    -1.370000000
O    -3.009000000    -1.592000000     2.089000000
H    -2.343000000    -1.237000000     2.678000000
H    -3.272000000    -2.417000000     2.495000000
O    -5.633000000     2.219000000    -0.365000000
H    -5.255000000     1.994000000     0.485000000
H    -4.960000000     2.747000000    -0.794000000
O     1.497000000    -4.970000000    -1.860000000
H     1.554000000    -5.207000000    -2.786000000
H     1.890000000    -4.098000000    -1.812000000
O     3.868000000    -2.316000000    -0.178000000
H     3.299000000    -2.341000000    -0.948000000
H     4.714000000    -2.632000000    -0.495000000
O    -2.206000000    -1.832000000    -4.009000000
H    -1.764000000    -2.421000000    -4.622000000
H    -1.496000000    -1.349000000    -3.587000000
O    -0.635000000     1.306000000    -5.324000000
H    -0.261000000     1.606000000    -6.153000000
H    -0.443000000     0.368000000    -5.300000000
O     4.205000000     0.487000000    -1.968000000
H     5.027000000     0.139000000    -2.314000000
H     3.933000000     1.142000000    -2.611000000
O    -2.118000000     4.674000000    -4.951000000
H    -2.262000000     3.817000000    -4.551000000
H    -1.300000000     4.575000000    -5.439000000
O     0.752000000    -4.855000000     1.246000000
H     0.789000000    -4.873000000     0.290000000
H     1.532000000    -4.365000000     1.506000000
O     0.408000000    -3.655000000     4.499000000
H    -0.061000000    -4.461000000     4.714000000
H     1.079000000    -3.928000000     3.873000000
O     1.059000000     4.971000000    -5.116000000
H     0.715000000     5.720000000    -4.629000000
H     0.938000000     4.226000000    -4.526000000
O    -4.140000000     3.914000000     4.330000000
H    -3.566000000     4.365000000     3.710000000
H    -3.546000000     3.551000000     4.987000000
O    -1.926000000    -2.946000000    -0.585000000
H    -1.997000000    -2.521000000     0.269000000
H    -1.417000000    -2.334000000    -1.116000000
O     4.677000000     1.505000000     3.987000000
H     5.168000000     2.191000000     4.440000000
H     3.935000000     1.963000000     3.594000000
O    -1.870000000     4.512000000    -1.632000000
H    -1.284000000     5.073000000    -2.140000000
H    -2.287000000     3.950000000    -2.285000000
O     4.420000000    -4.917000000    -3.857000000
H     3.691000000    -5.362000000    -4.290000000
H     4.318000000    -5.137000000    -2.931000000
O    -0.115000000     6.240000000    -2.609000000
H    -0.447000000     7.131000000    -2.720000000
H     0.780000000     6.356000000    -2.291000000
O     5.989000000    -3.990000000    -0.532000000
H     6.713000000    -4.376000000    -0.039000000
H     5.478000000    -4.740000000    -0.834000000
O     1.982000000     1.670000000     3.275000000
H     1.409000000     0.929000000     3.472000000
H     2.382000000     1.446000000     2.434000000
O     2.665000000    -2.405000000     6.236000000
H     1.971000000    -2.786000000     5.698000000
H     2.243000000    -2.219000000     7.075000000
O     4.590000000    -1.999000000     2.316000000
H     4.416000000    -1.058000000     2.320000000
H     4.618000000    -2.234000000     1.388000000
O     3.126000000     0.706000000     0.547000000
H     3.542000000     0.601000000    -0.309000000
H     2.435000000     0.045000000     0.561000000
O     4.301000000    -6.153000000    -1.235000000
H     3.400000000    -6.395000000    -1.020000000
H     4.660000000    -6.927000000    -1.668000000
O     0.034000000    -2.169000000    -5.988000000
H     0.224000000    -1.915000000    -5.085000000
H     0.680000000    -2.847000000    -6.187000000
O    -1.284000000    -5.578000000     2.691000000
H    -1.682000000    -4.718000000     2.827000000
H    -0.499000000    -5.400000000     2.173000000
O     1.419000000    -4.970000000    -4.700000000
H     1.357000000    -4.145000000    -5.182000000
H     1.494000000    -5.639000000    -5.380000000
O    -1.775000000    -1.134000000    -7.720000000
H    -0.894000000    -1.276000000    -7.376000000
H    -1.642000000    -0.940000000    -8.648000000
O    -5.109000000     1.933000000     2.111000000
H    -4.446000000     1.981000000     2.800000000
H    -5.944000000     1.962000000     2.579000000
O    -1.548000000    -1.723000000     4.432000000
H    -1.992000000    -2.145000000     5.167000000
H    -0.770000000    -2.260000000     4.281000000
O    -5.757000000    -1.050000000     0.866000000
H    -5.083000000    -1.388000000     1.456000000
H    -5.336000000    -0.319000000     0.414000000
O    -4.363000000    -1.796000000    -5.762000000
H    -4.237000000    -2.508000000    -6.390000000
H    -3.550000000    -1.774000000    -5.258000000
O     0.592000000    -0.270000000     4.814000000
H    -0.348000000    -0.440000000     4.757000000
H     0.820000000    -0.485000000     5.719000000
O     2.077000000     0.727000000    -4.312000000
H     1.645000000    -0.084000000    -4.044000000
H     1.593000000     1.418000000    -3.859000000
O     6.998000000    -1.199000000    -2.803000000
H     7.726000000    -1.605000000    -3.273000000
H     6.337000000    -1.888000000    -2.743000000
O     0.842000000     2.740000000     5.677000000
H     1.174000000     2.404000000     6.510000000
H     1.469000000     2.425000000     5.026000000
O     0.665000000     3.023000000    -3.070000000
H     1.156000000     2.928000000    -2.253000000
H    -0.252000000     2.938000000    -2.810000000
O    -2.258000000     2.197000000    -3.447000000
H    -1.642000000     1.796000000    -4.061000000
H    -3.043000000     1.652000000    -3.505000000
O    -2.079000000     2.735000000     6.095000000
H    -2.249000000     1.963000000     6.634000000
H    -1.125000000     2.771000000     6.022000000
O     2.663000000    -3.891000000     2.920000000
H     3.397000000    -4.503000000     2.982000000
H     3.069000000    -3.050000000     2.709000000
O    -1.981000000     5.377000000     3.226000000
H    -2.202000000     5.529000000     2.307000000
H    -1.062000000     5.111000000     3.210000000
O     4.410000000     0.028000000    -5.444000000
H     3.508000000     0.263000000    -5.226000000
H     4.567000000    -0.787000000    -4.967000000
O     4.252000000    -2.277000000    -3.731000000
H     3.361000000    -2.237000000    -3.385000000
H     4.409000000    -3.209000000    -3.881000000
O     0.346000000     4.525000000     0.347000000
H    -0.198000000     4.566000000    -0.440000000
H     1.097000000     3.989000000     0.090000000
O     2.268000000     3.019000000    -0.891000000
H     2.412000000     2.185000000    -0.444000000
H     3.049000000     3.140000000    -1.431000000
O    -3.121000000     5.394000000     0.627000000
H    -3.631000000     6.203000000     0.655000000
H    -2.936000000     5.259000000    -0.303000000
O     0.649000000     4.634000000     3.166000000
H     1.051000000     3.945000000     3.696000000
H     0.564000000     4.247000000     2.295000000
O    -4.432000000     0.582000000    -4.018000000
H    -4.052000000    -0.258000000    -4.276000000
H    -5.152000000     0.349000000    -3.432000000
