161
-3051.22533
C    -0.768000000     0.485000000    -1.169000000
H    -1.101000000     1.073000000    -2.021000000
C    -0.865000000     0.988000000     0.104000000
H    -1.349000000     1.946000000     0.277000000
C    -0.221000000     0.366000000     1.170000000
C    -0.227000000     1.024000000     2.471000000
H    -1.239000000     1.320000000     2.754000000
H     0.081000000     0.279000000     3.207000000
H     0.532000000     1.807000000     2.410000000
C     0.632000000    -0.718000000     0.956000000
H     1.324000000    -1.008000000     1.743000000
C     0.723000000    -1.239000000    -0.338000000
H     1.492000000    -1.968000000    -0.583000000
C    -0.007000000    -0.616000000    -1.440000000
C     0.287000000    -1.060000000    -2.796000000
O     1.001000000    -2.016000000    -2.940000000
O    -0.298000000    -0.671000000    -3.798000000
O     2.203000000    -4.110000000    -1.587000000
H     2.602000000    -4.630000000    -2.285000000
H     1.691000000    -3.444000000    -2.048000000
O    -2.817000000    -0.667000000     5.950000000
H    -2.867000000    -1.402000000     5.339000000
H    -1.881000000    -0.554000000     6.113000000
O    -0.216000000     4.891000000     2.601000000
H    -0.198000000     4.896000000     1.644000000
H    -1.140000000     4.772000000     2.822000000
O     5.386000000     0.331000000     4.991000000
H     5.226000000     0.950000000     5.703000000
H     4.538000000    -0.085000000     4.839000000
O    -3.135000000     3.418000000    -4.937000000
H    -2.370000000     3.929000000    -5.199000000
H    -2.780000000     2.562000000    -4.695000000
O    -0.751000000     4.431000000    -5.468000000
H    -0.141000000     3.772000000    -5.136000000
H    -0.480000000     4.573000000    -6.375000000
O     2.768000000    -3.172000000    -6.438000000
H     2.736000000    -2.700000000    -7.270000000
H     2.379000000    -4.025000000    -6.631000000
O    -3.082000000     0.528000000    -7.279000000
H    -2.559000000     0.369000000    -8.064000000
H    -2.459000000     0.878000000    -6.642000000
O    -2.384000000    -2.991000000     4.371000000
H    -2.695000000    -3.840000000     4.684000000
H    -1.620000000    -3.199000000     3.834000000
O    -0.661000000     1.068000000     6.821000000
H    -0.166000000     1.887000000     6.826000000
H    -0.024000000     0.402000000     7.081000000
O     2.651000000     4.824000000    -0.890000000
H     2.442000000     3.925000000    -0.637000000
H     3.576000000     4.927000000    -0.667000000
O    -2.631000000     4.046000000    -0.097000000
H    -3.272000000     4.703000000    -0.367000000
H    -1.784000000     4.477000000    -0.211000000
O    -0.182000000     5.303000000    -0.071000000
H     0.637000000     4.964000000    -0.434000000
H    -0.202000000     6.221000000    -0.341000000
O    -1.375000000     1.143000000    -5.239000000
H    -0.716000000     1.824000000    -5.105000000
H    -1.087000000     0.419000000    -4.683000000
O    -3.986000000    -0.181000000     1.200000000
H    -3.600000000     0.691000000     1.281000000
H    -3.324000000    -0.693000000     0.735000000
O     5.011000000    -0.392000000    -2.309000000
H     4.553000000    -1.086000000    -2.783000000
H     5.916000000    -0.699000000    -2.250000000
O     2.072000000     2.025000000    -0.455000000
H     2.500000000     1.693000000     0.334000000
H     1.235000000     1.562000000    -0.487000000
O     4.254000000     3.217000000     3.364000000
H     5.120000000     2.819000000     3.454000000
H     3.752000000     2.866000000     4.099000000
O    -2.745000000    -5.420000000    -3.377000000
H    -3.391000000    -4.911000000    -2.888000000
H    -1.900000000    -5.081000000    -3.084000000
O     3.104000000    -1.478000000     6.704000000
H     3.302000000    -1.451000000     7.640000000
H     2.178000000    -1.718000000     6.661000000
O     2.079000000    -4.271000000     1.177000000
H     2.058000000    -3.988000000     0.263000000
H     2.427000000    -5.162000000     1.143000000
O     0.979000000     2.367000000    -4.790000000
H     1.188000000     1.472000000    -5.057000000
H     1.792000000     2.700000000    -4.410000000
O     3.478000000    -2.349000000    -3.879000000
H     2.596000000    -2.180000000    -3.548000000
H     3.353000000    -2.542000000    -4.808000000
O     3.991000000     0.779000000    -6.039000000
H     4.502000000     0.234000000    -5.440000000
H     3.102000000     0.427000000    -5.981000000
O    -3.522000000     2.569000000     2.048000000
H    -3.220000000     2.906000000     2.892000000
H    -3.036000000     3.079000000     1.399000000
O    -6.001000000     1.403000000     3.883000000
H    -6.716000000     1.754000000     3.353000000
H    -5.206000000     1.691000000     3.435000000
O    -0.178000000    -4.332000000    -3.988000000
H    -0.582000000    -4.066000000    -4.813000000
H     0.105000000    -3.512000000    -3.584000000
O    -3.909000000     0.498000000    -1.753000000
H    -3.072000000     0.962000000    -1.718000000
H    -4.127000000     0.467000000    -2.684000000
O     5.320000000    -4.090000000    -2.584000000
H     4.527000000    -3.662000000    -2.906000000
H     5.122000000    -5.025000000    -2.628000000
O     4.556000000    -1.227000000     0.478000000
H     4.021000000    -0.511000000     0.822000000
H     4.714000000    -0.990000000    -0.436000000
O    -4.712000000     0.009000000    -4.458000000
H    -4.529000000     0.532000000    -5.239000000
H    -5.356000000    -0.637000000    -4.749000000
O     2.300000000     2.025000000     5.524000000
H     1.870000000     2.848000000     5.291000000
H     2.403000000     2.069000000     6.474000000
O     1.458000000     4.821000000     5.009000000
H     1.211000000     4.530000000     4.132000000
H     0.675000000     5.254000000     5.348000000
O    -1.850000000    -2.444000000     0.715000000
H    -1.352000000    -2.721000000     1.484000000
H    -1.210000000    -2.445000000     0.003000000
O    -2.258000000     3.258000000     4.323000000
H    -2.082000000     2.428000000     4.765000000
H    -2.014000000     3.927000000     4.963000000
O    -2.223000000    -2.447000000    -6.498000000
H    -1.579000000    -2.634000000    -7.181000000
H    -2.464000000    -1.532000000    -6.640000000
O    -2.730000000    -1.966000000    -3.319000000
H    -3.386000000    -1.289000000    -3.483000000
H    -1.904000000    -1.572000000    -3.598000000
O    -0.248000000    -3.781000000     2.829000000
H     0.139000000    -3.790000000     3.704000000
H     0.480000000    -3.995000000     2.244000000
O     1.503000000    -0.278000000    -5.805000000
H     0.904000000    -0.723000000    -5.205000000
H     1.598000000    -0.883000000    -6.541000000
O    -3.292000000    -3.779000000    -1.264000000
H    -2.915000000    -3.363000000    -0.489000000
H    -3.328000000    -3.080000000    -1.917000000
O     0.422000000    -6.956000000    -4.155000000
H     0.254000000    -6.015000000    -4.198000000
H     1.366000000    -7.037000000    -4.289000000
O     2.907000000    -0.777000000     3.906000000
H     3.374000000    -1.517000000     3.517000000
H     2.771000000    -1.033000000     4.818000000
O     3.052000000     1.737000000    -2.921000000
H     2.844000000     1.870000000    -1.996000000
H     3.628000000     0.973000000    -2.928000000
O     3.481000000     1.155000000     1.707000000
H     3.006000000     0.799000000     2.458000000
H     3.717000000     2.044000000     1.974000000
O    -4.897000000    -1.925000000     3.253000000
H    -4.671000000    -1.258000000     2.605000000
H    -4.081000000    -2.405000000     3.397000000
O     5.442000000    -4.674000000     0.137000000
H     5.561000000    -4.267000000    -0.722000000
H     5.742000000    -4.012000000     0.759000000
O    -5.263000000     3.240000000    -1.566000000
H    -4.718000000     3.327000000    -0.783000000
H    -5.164000000     2.324000000    -1.826000000
O     3.971000000    -2.783000000     2.477000000
H     3.236000000    -3.144000000     1.982000000
H     4.352000000    -2.125000000     1.896000000
