161
-3026.97657
C    -0.786000000     0.541000000    -1.152000000
H    -1.528000000     0.899000000    -1.861000000
C    -0.786000000     1.047000000     0.167000000
H    -1.488000000     1.819000000     0.472000000
C    -0.059000000     0.422000000     1.168000000
C    -0.071000000     1.055000000     2.532000000
H     0.212000000     2.103000000     2.415000000
H    -1.029000000     1.036000000     3.056000000
H     0.684000000     0.688000000     3.230000000
C     0.860000000    -0.594000000     0.801000000
H     1.447000000    -1.211000000     1.476000000
C     0.904000000    -1.102000000    -0.486000000
H     1.611000000    -1.904000000    -0.681000000
C     0.035000000    -0.616000000    -1.451000000
C     0.032000000    -1.202000000    -2.844000000
O     0.503000000    -2.292000000    -3.086000000
O    -0.533000000    -0.685000000    -3.756000000
O     1.572000000    -4.566000000    -2.075000000
H     2.191000000    -4.836000000    -2.753000000
H     1.251000000    -3.714000000    -2.369000000
O    -3.967000000    -0.498000000     4.314000000
H    -3.523000000    -1.329000000     4.483000000
H    -3.334000000     0.170000000     4.579000000
O    -4.537000000     3.835000000    -3.700000000
H    -4.202000000     3.511000000    -4.537000000
H    -5.090000000     3.126000000    -3.373000000
O     1.081000000    -5.960000000    -6.246000000
H     1.544000000    -6.663000000    -6.701000000
H     1.578000000    -5.829000000    -5.438000000
O    -0.271000000    -6.650000000    -1.503000000
H    -1.055000000    -6.640000000    -2.052000000
H     0.198000000    -5.850000000    -1.742000000
O     0.664000000    -4.320000000     0.950000000
H     0.820000000    -4.711000000     0.091000000
H     1.538000000    -4.204000000     1.323000000
O    -3.278000000     2.820000000    -5.930000000
H    -2.928000000     3.594000000    -6.372000000
H    -2.519000000     2.250000000    -5.808000000
O    -1.959000000    -2.711000000     4.415000000
H    -2.133000000    -3.188000000     5.226000000
H    -1.010000000    -2.767000000     4.303000000
O    -2.504000000     2.238000000     5.362000000
H    -2.331000000     1.466000000     5.901000000
H    -1.926000000     2.913000000     5.718000000
O     1.471000000     3.900000000    -0.562000000
H     1.243000000     3.441000000    -1.370000000
H     2.340000000     4.264000000    -0.730000000
O    -2.831000000     4.764000000    -0.609000000
H    -2.187000000     5.409000000    -0.313000000
H    -2.591000000     4.586000000    -1.518000000
O    -0.335000000     6.114000000    -0.217000000
H     0.311000000     5.467000000     0.068000000
H    -0.158000000     6.234000000    -1.150000000
O    -0.907000000     1.620000000    -5.225000000
H     0.008000000     1.871000000    -5.348000000
H    -0.867000000     0.804000000    -4.727000000
O    -4.429000000    -1.858000000     1.941000000
H    -3.612000000    -2.355000000     1.980000000
H    -4.448000000    -1.364000000     2.760000000
O    -1.421000000    -0.026000000     6.750000000
H    -1.179000000     0.170000000     7.655000000
H    -2.043000000    -0.750000000     6.820000000
O     2.771000000     1.357000000    -1.320000000
H     3.403000000     1.583000000    -0.638000000
H     1.928000000     1.329000000    -0.866000000
O     3.793000000     5.331000000     2.052000000
H     4.720000000     5.127000000     1.929000000
H     3.422000000     4.536000000     2.435000000
O     0.999000000    -1.384000000     6.811000000
H     0.822000000    -1.885000000     7.607000000
H     0.159000000    -0.981000000     6.591000000
O    -3.192000000    -5.186000000    -2.433000000
H    -3.360000000    -4.394000000    -1.921000000
H    -2.380000000    -4.998000000    -2.905000000
O     3.353000000     0.627000000     6.421000000
H     2.749000000     1.369000000     6.462000000
H     2.794000000    -0.143000000     6.529000000
O    -2.874000000    -4.280000000    -7.211000000
H    -2.596000000    -3.991000000    -8.080000000
H    -2.405000000    -3.705000000    -6.605000000
O     3.525000000    -3.757000000     1.416000000
H     3.817000000    -3.181000000     0.709000000
H     4.255000000    -4.362000000     1.549000000
O     1.798000000     2.325000000    -5.604000000
H     1.892000000     1.628000000    -6.253000000
H     2.449000000     2.118000000    -4.934000000
O     3.454000000    -2.179000000    -2.611000000
H     2.543000000    -2.237000000    -2.324000000
H     3.402000000    -1.824000000    -3.499000000
O     2.771000000     0.003000000    -6.863000000
H     3.719000000    -0.010000000    -6.997000000
H     2.587000000    -0.801000000    -6.378000000
O    -1.817000000     4.769000000    -3.091000000
H    -2.470000000     4.429000000    -3.703000000
H    -0.988000000     4.704000000    -3.564000000
O     2.824000000    -3.206000000     5.484000000
H     3.525000000    -2.842000000     6.025000000
H     2.067000000    -2.648000000     5.665000000
O    -4.443000000     2.669000000     0.305000000
H    -4.303000000     2.643000000     1.251000000
H    -3.814000000     3.317000000    -0.013000000
O     3.156000000    -5.603000000    -4.176000000
H     3.590000000    -5.380000000    -4.999000000
H     3.326000000    -6.538000000    -4.061000000
O    -0.820000000    -4.241000000    -3.873000000
H    -0.943000000    -3.837000000    -4.732000000
H    -0.274000000    -3.619000000    -3.392000000
O    -5.591000000     1.095000000    -3.353000000
H    -4.791000000     0.575000000    -3.273000000
H    -5.814000000     1.049000000    -4.282000000
O     4.343000000    -0.479000000     0.672000000
H     4.408000000     0.438000000     0.940000000
H     3.950000000    -0.446000000    -0.200000000
O     1.331000000     2.655000000     6.536000000
H     0.409000000     2.809000000     6.329000000
H     1.478000000     3.140000000     7.348000000
O    -1.731000000    -0.072000000    -7.719000000
H    -1.489000000     0.219000000    -6.840000000
H    -1.715000000     0.725000000    -8.249000000
O     2.830000000     3.282000000     3.907000000
H     2.144000000     3.039000000     4.529000000
H     3.370000000     2.496000000     3.826000000
O    -1.199000000     4.434000000     6.192000000
H    -2.048000000     4.769000000     5.906000000
H    -0.559000000     4.963000000     5.716000000
O    -1.933000000    -2.875000000     1.340000000
H    -1.332000000    -3.618000000     1.394000000
H    -1.397000000    -2.157000000     1.002000000
O     2.841000000    -6.225000000    -0.120000000
H     2.349000000    -6.821000000    -0.685000000
H     3.088000000    -5.500000000    -0.694000000
O    -3.841000000     3.174000000     3.192000000
H    -3.339000000     2.592000000     3.762000000
H    -3.774000000     4.033000000     3.608000000
O    -1.158000000    -2.719000000    -5.849000000
H    -0.571000000    -2.788000000    -6.602000000
H    -0.800000000    -1.997000000    -5.332000000
O    -3.417000000    -0.558000000    -3.497000000
H    -3.722000000    -1.214000000    -4.123000000
H    -2.470000000    -0.522000000    -3.628000000
O     0.566000000    -3.340000000     3.654000000
H     1.340000000    -3.588000000     4.161000000
H     0.639000000    -3.844000000     2.844000000
O     2.073000000    -2.076000000    -5.212000000
H     1.461000000    -1.870000000    -4.505000000
H     1.655000000    -2.793000000    -5.689000000
O    -3.567000000    -2.463000000    -1.519000000
H    -2.725000000    -2.026000000    -1.394000000
H    -4.142000000    -1.782000000    -1.867000000
O     5.004000000     1.250000000     4.147000000
H     5.078000000     0.398000000     3.717000000
H     4.576000000     1.060000000     4.981000000
O     3.776000000     2.323000000    -3.855000000
H     3.443000000     1.741000000    -3.171000000
H     4.421000000     2.872000000    -3.409000000
O     5.082000000    -3.561000000    -0.753000000
H     6.010000000    -3.670000000    -0.965000000
H     4.757000000    -2.945000000    -1.410000000
O     4.907000000    -1.598000000     3.029000000
H     4.379000000    -2.351000000     3.295000000
H     4.572000000    -1.365000000     2.163000000
