161
-3027.96601
C    -0.205000000     0.084000000    -1.512000000
H    -0.554000000     0.264000000    -2.526000000
C    -0.574000000     1.033000000    -0.552000000
H    -1.056000000     1.958000000    -0.859000000
C    -0.211000000     0.930000000     0.791000000
C    -0.585000000     2.007000000     1.785000000
H    -1.383000000     1.710000000     2.468000000
H     0.352000000     2.258000000     2.286000000
H    -0.957000000     2.961000000     1.405000000
C     0.374000000    -0.264000000     1.250000000
H     0.669000000    -0.414000000     2.285000000
C     0.699000000    -1.266000000     0.310000000
H     1.128000000    -2.183000000     0.705000000
C     0.420000000    -1.123000000    -1.084000000
C     0.612000000    -2.324000000    -2.019000000
O     1.198000000    -3.293000000    -1.620000000
O     0.081000000    -2.343000000    -3.105000000
O    -4.059000000     5.540000000    -1.150000000
H    -3.353000000     5.881000000    -1.699000000
H    -3.961000000     6.003000000    -0.318000000
O    -5.879000000    -0.446000000     2.115000000
H    -5.700000000     0.449000000     2.404000000
H    -5.029000000    -0.884000000     2.148000000
O    -0.278000000    -5.435000000    -1.258000000
H    -0.089000000    -5.912000000    -2.067000000
H     0.090000000    -4.563000000    -1.403000000
O    -0.643000000     2.894000000    -5.543000000
H    -0.389000000     3.047000000    -6.454000000
H    -0.592000000     3.758000000    -5.133000000
O     4.420000000    -6.140000000     0.946000000
H     5.011000000    -6.451000000     0.260000000
H     4.026000000    -5.347000000     0.581000000
O     1.851000000     2.304000000    -1.294000000
H     1.156000000     1.841000000    -0.825000000
H     2.235000000     2.886000000    -0.639000000
O     0.973000000     7.357000000     1.457000000
H     0.651000000     6.473000000     1.636000000
H     0.364000000     7.932000000     1.919000000
O    -3.205000000    -5.228000000    -3.066000000
H    -3.370000000    -5.740000000    -2.274000000
H    -3.312000000    -4.318000000    -2.789000000
O     4.644000000    -1.811000000     0.313000000
H     5.565000000    -1.603000000     0.470000000
H     4.319000000    -1.076000000    -0.208000000
O    -1.516000000    -1.475000000     6.468000000
H    -2.215000000    -1.211000000     5.869000000
H    -0.718000000    -1.421000000     5.942000000
O     2.944000000     3.924000000     0.483000000
H     3.342000000     4.630000000    -0.026000000
H     3.507000000     3.837000000     1.252000000
O    -0.228000000     5.555000000     3.347000000
H    -0.003000000     5.043000000     2.570000000
H     0.612000000     5.726000000     3.773000000
O     1.789000000    -1.151000000    -6.200000000
H     1.923000000    -1.988000000    -6.645000000
H     0.851000000    -0.980000000    -6.289000000
O    -0.489000000    -2.357000000     3.879000000
H    -1.345000000    -2.178000000     3.491000000
H    -0.276000000    -3.245000000     3.592000000
O    -2.618000000     6.751000000     3.681000000
H    -1.800000000     6.315000000     3.443000000
H    -2.360000000     7.409000000     4.327000000
O    -2.798000000     0.838000000    -5.271000000
H    -2.886000000     0.736000000    -6.219000000
H    -2.056000000     1.432000000    -5.162000000
O     1.951000000    -1.142000000     4.683000000
H     1.040000000    -1.417000000     4.785000000
H     2.036000000    -0.378000000     5.255000000
O    -2.600000000    -0.973000000     1.316000000
H    -2.718000000    -1.131000000     2.253000000
H    -1.659000000    -0.828000000     1.214000000
O     0.554000000     4.917000000     0.582000000
H     1.423000000     4.521000000     0.643000000
H     0.440000000     5.101000000    -0.350000000
O     0.623000000    -7.043000000    -3.409000000
H     1.117000000    -6.487000000    -4.011000000
H     0.448000000    -7.840000000    -3.908000000
O    -2.878000000    -5.842000000    -0.431000000
H    -2.649000000    -6.067000000     0.471000000
H    -2.043000000    -5.615000000    -0.841000000
O     3.838000000     0.275000000    -1.414000000
H     3.130000000     0.785000000    -1.021000000
H     4.454000000     0.931000000    -1.740000000
O     3.496000000    -2.077000000    -3.811000000
H     2.999000000    -2.317000000    -3.029000000
H     2.836000000    -1.754000000    -4.425000000
O     1.956000000     4.127000000    -3.593000000
H     1.844000000     4.771000000    -2.893000000
H     1.708000000     3.293000000    -3.194000000
O    -3.862000000     1.439000000     0.662000000
H    -3.576000000     1.487000000    -0.250000000
H    -3.567000000     0.578000000     0.960000000
O    -0.946000000     5.300000000    -4.406000000
H    -1.660000000     4.909000000    -3.902000000
H    -0.289000000     5.532000000    -3.751000000
O     1.784000000    -4.878000000    -4.440000000
H     1.149000000    -4.413000000    -3.895000000
H     2.581000000    -4.903000000    -3.911000000
O    -5.263000000     2.618000000     2.729000000
H    -4.598000000     2.303000000     2.117000000
H    -5.021000000     3.528000000     2.898000000
O     1.688000000    -3.733000000    -7.122000000
H     0.793000000    -3.898000000    -7.420000000
H     1.761000000    -4.221000000    -6.302000000
O     0.539000000     5.978000000    -1.898000000
H     1.042000000     6.770000000    -1.711000000
H    -0.356000000     6.289000000    -2.037000000
O     3.668000000    -2.477000000     2.934000000
H     3.628000000    -2.038000000     2.084000000
H     3.128000000    -1.936000000     3.509000000
O     2.564000000    -8.048000000    -1.744000000
H     1.860000000    -7.523000000    -2.127000000
H     3.156000000    -8.224000000    -2.475000000
O     2.431000000     6.086000000     3.993000000
H     3.053000000     5.693000000     4.606000000
H     2.745000000     5.818000000     3.129000000
O     4.940000000     0.097000000     3.810000000
H     5.324000000     0.705000000     3.177000000
H     4.043000000    -0.033000000     3.502000000
O    -0.979000000     3.269000000     5.082000000
H    -0.880000000     4.079000000     4.581000000
H    -1.884000000     3.289000000     5.394000000
O     3.463000000    -3.936000000    -0.235000000
H     3.870000000    -3.148000000     0.124000000
H     2.696000000    -3.615000000    -0.710000000
O     0.734000000    -7.463000000     0.259000000
H     1.275000000    -7.833000000    -0.439000000
H     0.308000000    -6.706000000    -0.144000000
O    -2.517000000    -1.487000000    -3.503000000
H    -2.610000000    -0.844000000    -4.205000000
H    -1.573000000    -1.633000000    -3.435000000
O    -3.198000000    -2.729000000     3.611000000
H    -3.456000000    -3.249000000     2.849000000
H    -3.993000000    -2.670000000     4.141000000
O    -1.051000000    -4.447000000    -4.331000000
H    -1.769000000    -4.741000000    -3.770000000
H    -0.527000000    -3.876000000    -3.769000000
O    -3.836000000    -2.351000000    -1.261000000
H    -3.132000000    -2.235000000    -0.623000000
H    -3.472000000    -2.021000000    -2.082000000
O    -3.495000000     0.383000000     4.967000000
H    -3.212000000     1.274000000     5.174000000
H    -4.090000000     0.149000000     5.680000000
O     2.544000000    -4.523000000     4.260000000
H     3.075000000    -3.888000000     3.779000000
H     2.447000000    -5.260000000     3.658000000
O     0.444000000     1.035000000     6.102000000
H    -0.106000000     1.693000000     5.678000000
H     0.893000000     1.511000000     6.801000000
O     4.275000000    -4.945000000    -2.975000000
H     3.979000000    -5.247000000    -2.116000000
H     4.477000000    -4.018000000    -2.847000000
O    -2.219000000     3.860000000    -2.423000000
H    -2.561000000     2.969000000    -2.353000000
H    -2.301000000     4.218000000    -1.539000000
O    -3.299000000     1.363000000    -2.273000000
H    -3.993000000     1.661000000    -2.861000000
H    -3.114000000     0.467000000    -2.555000000
O    -2.651000000    -3.845000000    -6.395000000
H    -2.107000000    -3.947000000    -5.614000000
H    -2.077000000    -4.090000000    -7.121000000
