161
-3027.41257
C    -1.228000000    -0.702000000     0.265000000
H    -2.104000000    -1.245000000     0.610000000
C    -0.838000000     0.467000000     0.890000000
H    -1.544000000     0.950000000     1.560000000
C     0.396000000     1.109000000     0.474000000
C     0.832000000     2.426000000     1.168000000
H     0.048000000     2.813000000     1.822000000
H     1.678000000     2.121000000     1.788000000
H     0.992000000     3.252000000     0.473000000
C     1.191000000     0.460000000    -0.479000000
H     2.148000000     0.834000000    -0.834000000
C     0.757000000    -0.700000000    -1.045000000
H     1.404000000    -1.227000000    -1.742000000
C    -0.473000000    -1.323000000    -0.696000000
C    -0.940000000    -2.712000000    -1.265000000
O    -0.449000000    -3.253000000    -2.210000000
O    -1.878000000    -3.276000000    -0.771000000
O    -4.142000000     1.262000000     4.006000000
H    -3.335000000     0.851000000     4.318000000
H    -4.265000000     2.016000000     4.583000000
O    -0.328000000    -6.091000000    -2.150000000
H     0.522000000    -6.368000000    -1.808000000
H    -0.173000000    -5.211000000    -2.493000000
O     0.458000000     2.541000000    -4.022000000
H     1.021000000     1.814000000    -4.286000000
H     0.003000000     2.796000000    -4.824000000
O     2.610000000    -3.057000000     1.203000000
H     3.262000000    -2.971000000     1.899000000
H     2.196000000    -3.904000000     1.366000000
O     3.107000000     5.183000000     2.848000000
H     2.887000000     6.104000000     2.710000000
H     3.101000000     4.801000000     1.971000000
O     0.696000000    -4.594000000    -6.015000000
H     0.140000000    -5.343000000    -6.228000000
H     1.279000000    -4.916000000    -5.327000000
O     4.642000000     2.507000000    -3.720000000
H     4.457000000     1.672000000    -3.291000000
H     5.531000000     2.728000000    -3.442000000
O    -3.901000000    -0.340000000    -1.649000000
H    -3.096000000     0.135000000    -1.855000000
H    -3.940000000    -0.342000000    -0.693000000
O     3.462000000     4.432000000     0.426000000
H     3.860000000     5.173000000    -0.031000000
H     2.867000000     4.045000000    -0.216000000
O     1.599000000     0.333000000    -5.239000000
H     1.486000000    -0.562000000    -4.919000000
H     1.516000000     0.260000000    -6.190000000
O     1.318000000    -5.270000000     1.802000000
H     1.396000000    -6.107000000     2.260000000
H     0.516000000    -5.353000000     1.286000000
O    -4.749000000    -1.205000000     1.778000000
H    -4.728000000    -0.248000000     1.802000000
H    -4.175000000    -1.475000000     2.494000000
O     4.094000000     1.340000000     3.682000000
H     4.057000000     0.988000000     2.792000000
H     4.978000000     1.700000000     3.761000000
O    -4.303000000     4.251000000     0.840000000
H    -4.035000000     4.184000000    -0.076000000
H    -4.941000000     4.965000000     0.851000000
O    -6.228000000    -1.459000000    -2.975000000
H    -6.811000000    -1.522000000    -2.218000000
H    -5.392000000    -1.169000000    -2.609000000
O     5.012000000     0.314000000    -2.203000000
H     5.661000000     0.520000000    -1.530000000
H     5.114000000    -0.626000000    -2.354000000
O     4.453000000     0.638000000     1.084000000
H     4.236000000     0.674000000     0.152000000
H     4.882000000    -0.210000000     1.198000000
O    -3.573000000    -1.836000000     3.960000000
H    -2.780000000    -1.447000000     4.328000000
H    -3.637000000    -2.693000000     4.383000000
O     5.293000000    -0.459000000    -5.233000000
H     4.411000000    -0.261000000    -4.918000000
H     5.498000000     0.253000000    -5.838000000
O    -6.333000000     1.053000000    -0.709000000
H    -5.661000000     0.845000000    -1.359000000
H    -5.845000000     1.199000000     0.101000000
O     0.732000000    -1.840000000     2.510000000
H     1.478000000    -2.315000000     2.144000000
H     0.406000000    -1.309000000     1.783000000
O     6.180000000     3.476000000     0.481000000
H     6.522000000     4.307000000     0.153000000
H     5.295000000     3.684000000     0.783000000
O     0.656000000    -2.142000000    -4.493000000
H     0.226000000    -2.424000000    -3.686000000
H     0.575000000    -2.892000000    -5.082000000
O    -4.687000000     1.511000000     1.433000000
H    -4.549000000     2.446000000     1.284000000
H    -4.546000000     1.396000000     2.373000000
O     2.295000000    -5.562000000    -3.520000000
H     2.299000000    -6.248000000    -2.851000000
H     2.344000000    -4.745000000    -3.024000000
O     4.574000000    -3.059000000    -4.740000000
H     4.611000000    -2.911000000    -3.796000000
H     4.884000000    -2.239000000    -5.124000000
O     0.593000000     7.120000000    -1.776000000
H     0.858000000     6.386000000    -2.331000000
H    -0.132000000     6.777000000    -1.254000000
O     2.188000000     3.574000000    -2.120000000
H     2.948000000     3.693000000    -2.690000000
H     1.579000000     3.048000000    -2.639000000
O    -1.508000000    -0.377000000    -5.873000000
H    -1.473000000     0.538000000    -5.594000000
H    -0.992000000    -0.847000000    -5.219000000
O     0.582000000     7.796000000     3.275000000
H     0.047000000     7.010000000     3.169000000
H     0.460000000     8.047000000     4.191000000
O     0.908000000     3.971000000     6.573000000
H     0.683000000     4.886000000     6.403000000
H     1.094000000     3.606000000     5.708000000
O     2.257000000    -3.935000000    -1.438000000
H     2.368000000    -3.488000000    -0.599000000
H     1.317000000    -3.890000000    -1.610000000
O    -2.960000000     4.480000000     3.459000000
H    -3.247000000     4.146000000     2.609000000
H    -3.263000000     5.388000000     3.475000000
O    -2.211000000    -8.024000000     0.495000000
H    -2.215000000    -7.084000000     0.315000000
H    -1.326000000    -8.308000000     0.267000000
O    -1.285000000     6.230000000     5.700000000
H    -0.824000000     6.019000000     6.511000000
H    -0.940000000     5.607000000     5.060000000
O    -3.370000000    -3.839000000    -6.550000000
H    -2.711000000    -3.655000000    -5.881000000
H    -4.200000000    -3.586000000    -6.144000000
O    -1.694000000     1.221000000    -2.211000000
H    -1.128000000     1.742000000    -2.780000000
H    -1.238000000     1.204000000    -1.369000000
O    -6.108000000    -5.521000000     0.148000000
H    -5.409000000    -4.905000000     0.371000000
H    -5.982000000    -5.699000000    -0.784000000
O    -2.898000000    -5.688000000    -1.699000000
H    -2.036000000    -5.976000000    -2.000000000
H    -2.796000000    -4.749000000    -1.545000000
O    -4.802000000    -3.008000000    -0.206000000
H    -3.865000000    -3.191000000    -0.129000000
H    -4.961000000    -2.305000000     0.424000000
O    -0.093000000     4.948000000     3.447000000
H     0.553000000     4.241000000     3.429000000
H    -0.892000000     4.551000000     3.099000000
O     2.101000000     3.151000000     4.225000000
H     2.779000000     2.476000000     4.230000000
H     2.427000000     3.813000000     3.616000000
O    -1.456000000    -0.111000000     4.818000000
H    -1.185000000     0.783000000     5.025000000
H    -0.679000000    -0.512000000     4.428000000
O     2.677000000     7.523000000     0.106000000
H     1.891000000     7.285000000    -0.385000000
H     3.204000000     8.027000000    -0.514000000
O    -5.306000000    -3.667000000    -4.313000000
H    -5.660000000    -2.950000000    -3.786000000
H    -4.358000000    -3.606000000    -4.194000000
O     4.731000000    -4.714000000    -0.960000000
H     3.904000000    -4.364000000    -1.291000000
H     4.482000000    -5.233000000    -0.194000000
O    -1.678000000    -5.076000000     1.193000000
H    -2.460000000    -4.770000000     1.652000000
H    -1.600000000    -4.493000000     0.438000000
O    -2.476000000    -3.810000000    -3.880000000
H    -1.786000000    -3.552000000    -3.268000000
H    -2.405000000    -4.763000000    -3.934000000
