161
-3022.43555
C     0.538000000     0.466000000    -1.218000000
H     1.067000000     0.707000000    -2.136000000
C     1.306000000     0.126000000    -0.116000000
H     2.388000000     0.171000000    -0.210000000
C     0.674000000    -0.326000000     0.983000000
C     1.459000000    -0.867000000     2.173000000
H     2.484000000    -0.986000000     1.814000000
H     1.413000000    -0.156000000     3.000000000
H     1.095000000    -1.843000000     2.500000000
C    -0.706000000    -0.280000000     0.984000000
H    -1.182000000    -0.676000000     1.878000000
C    -1.509000000     0.131000000    -0.122000000
H    -2.593000000     0.202000000    -0.126000000
C    -0.857000000     0.523000000    -1.194000000
C    -1.635000000     0.953000000    -2.420000000
O    -2.857000000     1.027000000    -2.301000000
O    -1.091000000     0.835000000    -3.481000000
O    -2.440000000    -3.268000000    -3.734000000
H    -1.953000000    -3.177000000    -2.915000000
H    -3.111000000    -2.586000000    -3.691000000
O    -2.016000000     1.391000000     5.320000000
H    -1.469000000     1.661000000     4.583000000
H    -1.406000000     0.983000000     5.934000000
O    -1.585000000     3.177000000    -7.947000000
H    -1.927000000     2.818000000    -7.129000000
H    -1.671000000     4.125000000    -7.847000000
O    -0.323000000     5.143000000    -3.901000000
H    -1.242000000     4.884000000    -3.831000000
H    -0.055000000     4.844000000    -4.770000000
O     4.513000000    -1.266000000     6.408000000
H     3.797000000    -0.973000000     6.972000000
H     5.273000000    -0.768000000     6.708000000
O     6.873000000    -0.461000000    -0.655000000
H     6.802000000    -0.254000000    -1.587000000
H     7.685000000    -0.963000000    -0.582000000
O     0.343000000    -1.921000000     6.735000000
H     0.821000000    -1.493000000     6.024000000
H    -0.071000000    -1.203000000     7.212000000
O    -3.965000000    -1.043000000    -3.675000000
H    -4.477000000    -0.563000000    -4.325000000
H    -3.507000000    -0.363000000    -3.180000000
O     1.125000000     2.880000000     1.237000000
H     0.717000000     2.069000000     0.935000000
H     1.798000000     3.068000000     0.583000000
O     2.336000000     2.894000000     4.276000000
H     2.960000000     2.176000000     4.173000000
H     2.815000000     3.559000000     4.769000000
O     1.176000000    -4.090000000    -0.610000000
H     2.021000000    -3.702000000    -0.838000000
H     0.535000000    -3.410000000    -0.820000000
O    -3.320000000    -3.936000000     4.292000000
H    -3.436000000    -3.361000000     3.536000000
H    -3.271000000    -4.816000000     3.918000000
O    -5.425000000     1.403000000    -1.966000000
H    -4.492000000     1.243000000    -2.109000000
H    -5.813000000     0.530000000    -1.916000000
O     1.019000000     2.102000000    -4.646000000
H     0.714000000     2.916000000    -5.047000000
H     0.258000000     1.772000000    -4.168000000
O    -4.674000000     0.429000000     5.550000000
H    -3.803000000     0.788000000     5.379000000
H    -4.555000000    -0.135000000     6.314000000
O    -0.351000000     4.516000000    -1.366000000
H     0.436000000     4.805000000    -0.904000000
H    -0.152000000     4.660000000    -2.291000000
O     3.019000000     0.504000000    -3.958000000
H     3.785000000     0.767000000    -4.469000000
H     2.304000000     1.036000000    -4.309000000
O    -6.438000000     1.529000000     1.989000000
H    -5.505000000     1.319000000     1.952000000
H    -6.837000000     0.967000000     1.325000000
O    -2.572000000     3.334000000    -0.615000000
H    -1.754000000     3.669000000    -0.981000000
H    -2.920000000     2.756000000    -1.294000000
O     0.888000000    -2.662000000    -6.678000000
H     0.837000000    -2.973000000    -7.582000000
H     0.054000000    -2.217000000    -6.530000000
O    -3.518000000     2.148000000     1.770000000
H    -3.257000000     2.305000000     0.863000000
H    -2.770000000     2.441000000     2.289000000
O    -2.337000000     3.092000000    -4.916000000
H    -2.122000000     2.300000000    -4.423000000
H    -2.827000000     3.633000000    -4.296000000
O    -0.474000000    -2.396000000    -1.843000000
H     0.059000000    -2.278000000    -2.629000000
H    -0.444000000    -1.546000000    -1.404000000
O    -5.092000000    -3.074000000     1.972000000
H    -5.834000000    -3.659000000     1.823000000
H    -4.702000000    -2.956000000     1.106000000
O    -5.447000000     0.802000000    -5.101000000
H    -5.841000000     1.582000000    -5.492000000
H    -6.023000000     0.585000000    -4.368000000
O    -7.571000000     3.311000000    -1.279000000
H    -6.881000000     2.648000000    -1.271000000
H    -7.103000000     4.145000000    -1.220000000
O    -1.410000000    -5.937000000     3.342000000
H    -1.027000000    -5.469000000     4.084000000
H    -0.719000000    -5.941000000     2.680000000
O     6.427000000    -2.944000000     3.594000000
H     5.563000000    -2.630000000     3.859000000
H     6.378000000    -3.895000000     3.700000000
O     5.719000000     0.499000000     1.872000000
H     5.709000000     1.267000000     1.300000000
H     5.988000000    -0.221000000     1.303000000
O    -5.710000000    -1.874000000    -1.358000000
H    -5.619000000    -2.677000000    -0.844000000
H    -4.929000000    -1.854000000    -1.911000000
O    -3.119000000     0.565000000    -6.963000000
H    -2.292000000     0.448000000    -6.495000000
H    -3.647000000     1.113000000    -6.382000000
O    -3.226000000     5.026000000    -3.227000000
H    -3.450000000     5.495000000    -2.422000000
H    -3.768000000     5.437000000    -3.901000000
O     4.433000000    -4.806000000     6.126000000
H     5.096000000    -5.167000000     5.538000000
H     3.767000000    -4.444000000     5.541000000
O     1.150000000    -1.489000000    -3.969000000
H     1.714000000    -0.726000000    -3.845000000
H     0.795000000    -1.383000000    -4.852000000
O     0.686000000    -5.375000000     1.690000000
H     1.443000000    -5.014000000     2.150000000
H     0.767000000    -5.042000000     0.796000000
O     3.508000000    -2.371000000     4.003000000
H     2.993000000    -1.723000000     3.522000000
H     3.634000000    -1.983000000     4.869000000
O    -1.062000000    -4.113000000     5.794000000
H    -0.662000000    -3.345000000     6.201000000
H    -1.917000000    -3.807000000     5.493000000
O     4.343000000    -3.805000000    -0.149000000
H     4.234000000    -3.129000000    -0.818000000
H     5.279000000    -4.006000000    -0.163000000
O     3.938000000     0.623000000     3.989000000
H     4.592000000     0.125000000     4.479000000
H     4.243000000     0.594000000     3.083000000
O     2.874000000     3.197000000    -1.151000000
H     3.693000000     3.692000000    -1.174000000
H     2.828000000     2.770000000    -2.006000000
O    -1.173000000    -0.644000000    -5.725000000
H    -0.919000000    -0.049000000    -5.019000000
H    -1.963000000    -1.077000000    -5.401000000
O     1.427000000     0.496000000     5.549000000
H     1.681000000     0.929000000     6.364000000
H     2.188000000     0.598000000     4.977000000
O     3.195000000    -4.545000000     2.393000000
H     3.358000000    -3.793000000     2.962000000
H     3.732000000    -4.379000000     1.618000000
O     3.650000000    -1.790000000    -2.191000000
H     2.942000000    -2.158000000    -2.720000000
H     3.916000000    -1.001000000    -2.663000000
O    -0.325000000     2.476000000     3.572000000
H     0.050000000     2.843000000     2.771000000
H     0.434000000     2.237000000     4.103000000
O    -3.254000000     6.312000000    -0.398000000
H    -2.515000000     6.917000000    -0.338000000
H    -2.855000000     5.443000000    -0.371000000
O    -0.388000000     0.182000000    -8.331000000
H    -0.618000000    -0.156000000    -7.466000000
H    -1.224000000     0.245000000    -8.794000000
O     3.178000000     4.825000000     2.215000000
H     2.812000000     3.942000000     2.157000000
H     3.703000000     4.814000000     3.016000000
