161
-3021.58372
C    -1.461000000    -0.073000000     0.169000000
H    -2.502000000     0.012000000     0.472000000
C    -0.755000000     1.100000000     0.048000000
H    -1.363000000     1.998000000     0.127000000
C     0.624000000     1.023000000    -0.178000000
C     1.474000000     2.258000000    -0.030000000
H     2.109000000     2.239000000     0.858000000
H     2.062000000     2.408000000    -0.938000000
H     0.875000000     3.157000000     0.131000000
C     1.227000000    -0.200000000    -0.397000000
H     2.286000000    -0.223000000    -0.639000000
C     0.535000000    -1.396000000    -0.247000000
H     0.997000000    -2.371000000    -0.379000000
C    -0.797000000    -1.283000000     0.133000000
C    -1.580000000    -2.537000000     0.244000000
O    -0.974000000    -3.530000000     0.471000000
O    -2.757000000    -2.574000000     0.162000000
O    -1.282000000    -7.118000000     4.930000000
H    -2.191000000    -7.349000000     4.741000000
H    -1.053000000    -6.476000000     4.257000000
O     3.088000000    -5.840000000    -3.220000000
H     2.917000000    -5.984000000    -4.151000000
H     2.279000000    -5.455000000    -2.884000000
O    -0.967000000    -4.173000000     3.279000000
H    -1.146000000    -3.904000000     2.378000000
H    -1.827000000    -4.190000000     3.699000000
O     2.484000000    -1.712000000    -5.137000000
H     2.894000000    -0.966000000    -4.700000000
H     1.631000000    -1.799000000    -4.711000000
O    -3.095000000     0.995000000    -3.015000000
H    -2.977000000     0.573000000    -3.866000000
H    -2.270000000     1.456000000    -2.860000000
O     4.505000000     1.962000000     2.368000000
H     4.016000000     1.230000000     2.743000000
H     4.243000000     2.719000000     2.892000000
O     4.381000000     4.337000000     3.718000000
H     5.242000000     4.746000000     3.801000000
H     3.832000000     4.806000000     4.347000000
O    -1.188000000     3.030000000    -2.602000000
H    -0.637000000     2.704000000    -1.891000000
H    -1.241000000     3.974000000    -2.451000000
O     5.409000000     4.077000000     0.544000000
H     5.144000000     4.980000000     0.371000000
H     4.691000000     3.712000000     1.062000000
O    -6.746000000    -2.878000000     1.777000000
H    -6.521000000    -2.933000000     0.848000000
H    -7.634000000    -2.521000000     1.787000000
O    -5.687000000     4.560000000    -1.056000000
H    -5.889000000     4.616000000    -1.990000000
H    -5.691000000     3.622000000    -0.866000000
O     1.911000000    -2.920000000     3.207000000
H     1.768000000    -2.316000000     3.936000000
H     1.032000000    -3.124000000     2.889000000
O    -3.333000000    -2.440000000     2.817000000
H    -4.249000000    -2.166000000     2.869000000
H    -3.125000000    -2.404000000     1.884000000
O     0.691000000     6.590000000    -0.010000000
H     0.801000000     7.455000000     0.384000000
H     0.100000000     6.129000000     0.586000000
O    -1.900000000    -3.723000000    -2.701000000
H    -2.706000000    -4.105000000    -3.050000000
H    -2.148000000    -3.385000000    -1.841000000
O    -4.449000000    -5.001000000    -2.372000000
H    -4.797000000    -4.373000000    -1.740000000
H    -4.901000000    -4.794000000    -3.190000000
O    -3.226000000    -0.490000000     4.767000000
H    -2.323000000    -0.572000000     5.076000000
H    -3.356000000    -1.254000000     4.205000000
O    -6.962000000     0.019000000     3.441000000
H    -6.315000000     0.442000000     2.876000000
H    -6.512000000    -0.752000000     3.785000000
O    -1.238000000     5.959000000    -2.487000000
H    -0.542000000     5.857000000    -1.838000000
H    -1.886000000     6.518000000    -2.057000000
O     0.749000000     1.948000000    -4.814000000
H     0.335000000     1.865000000    -3.954000000
H     1.688000000     1.912000000    -4.632000000
O     1.583000000     2.144000000     5.322000000
H     2.513000000     2.108000000     5.099000000
H     1.563000000     2.504000000     6.209000000
O    -6.263000000    -1.892000000    -2.748000000
H    -6.188000000    -2.630000000    -3.353000000
H    -6.184000000    -1.117000000    -3.304000000
O     5.704000000    -2.428000000    -0.162000000
H     5.572000000    -1.481000000    -0.185000000
H     4.873000000    -2.778000000     0.160000000
O    -3.587000000    -4.868000000     4.418000000
H    -3.735000000    -5.493000000     3.709000000
H    -3.861000000    -4.026000000     4.056000000
O    -4.090000000     1.996000000     4.174000000
H    -4.317000000     1.806000000     3.264000000
H    -3.816000000     1.152000000     4.534000000
O     2.931000000    -0.196000000     2.764000000
H     3.417000000    -1.020000000     2.773000000
H     2.129000000    -0.386000000     3.251000000
O    -7.366000000     2.131000000    -0.328000000
H    -6.627000000     1.622000000    -0.661000000
H    -7.977000000     2.175000000    -1.064000000
O     1.778000000    -7.396000000     2.083000000
H     2.045000000    -6.987000000     2.906000000
H     1.260000000    -6.725000000     1.639000000
O     0.277000000    -5.516000000    -2.886000000
H    -0.093000000    -6.370000000    -3.109000000
H    -0.458000000    -4.908000000    -2.965000000
O     7.142000000     2.188000000     3.174000000
H     6.312000000     2.467000000     2.787000000
H     7.810000000     2.519000000     2.573000000
O    -0.276000000     2.542000000     3.252000000
H     0.164000000     1.975000000     2.618000000
H     0.318000000     2.568000000     4.002000000
O    -2.764000000    -5.575000000    -0.084000000
H    -2.236000000    -4.831000000     0.206000000
H    -2.997000000    -5.365000000    -0.988000000
O    -5.243000000     0.653000000    -1.100000000
H    -4.441000000     0.854000000    -1.581000000
H    -5.403000000    -0.275000000    -1.276000000
O    -5.228000000    -3.291000000    -0.550000000
H    -4.393000000    -2.981000000    -0.198000000
H    -5.421000000    -2.692000000    -1.271000000
O    -1.756000000     5.787000000     1.447000000
H    -1.518000000     5.214000000     2.176000000
H    -2.702000000     5.902000000     1.532000000
O     5.958000000     2.499000000    -1.650000000
H     5.554000000     3.007000000    -0.946000000
H     5.619000000     2.893000000    -2.454000000
O     5.666000000     0.194000000    -0.127000000
H     5.298000000     0.787000000    -0.782000000
H     5.202000000     0.412000000     0.681000000
O     3.262000000     5.970000000     0.967000000
H     2.812000000     6.270000000     1.757000000
H     2.585000000     5.970000000     0.291000000
O     1.205000000    -5.096000000     0.511000000
H     0.874000000    -5.619000000    -0.220000000
H     0.617000000    -4.341000000     0.550000000
O    -5.483000000     1.691000000     1.691000000
H    -5.435000000     1.590000000     0.740000000
H    -6.239000000     2.261000000     1.833000000
O    -5.718000000    -2.837000000     4.346000000
H    -5.718000000    -3.743000000     4.656000000
H    -6.212000000    -2.864000000     3.527000000
O     3.737000000    -3.672000000     1.441000000
H     3.050000000    -4.263000000     1.134000000
H     3.341000000    -3.208000000     2.180000000
O    -2.442000000     4.115000000     3.794000000
H    -3.161000000     3.497000000     3.922000000
H    -1.708000000     3.573000000     3.505000000
O     5.349000000     4.209000000    -3.496000000
H     4.795000000     3.800000000    -4.161000000
H     4.853000000     4.976000000    -3.211000000
O    -0.194000000    -2.183000000    -4.737000000
H    -0.557000000    -2.517000000    -3.917000000
H    -0.849000000    -1.560000000    -5.052000000
O    -4.308000000    -6.336000000     1.924000000
H    -5.112000000    -6.644000000     1.505000000
H    -3.801000000    -5.946000000     1.211000000
O     1.044000000    -0.596000000     4.943000000
H     1.091000000     0.333000000     5.167000000
H     0.362000000    -0.947000000     5.516000000
O     2.411000000    -5.267000000     4.617000000
H     2.197000000    -4.655000000     3.913000000
H     2.193000000    -4.795000000     5.420000000
