161
-3059.85552
C    -1.266000000     0.416000000    -0.620000000
H    -2.232000000     0.740000000    -0.999000000
C    -0.896000000     0.841000000     0.667000000
H    -1.589000000     1.448000000     1.243000000
C     0.358000000     0.400000000     1.076000000
C     0.859000000     0.770000000     2.456000000
H     0.315000000     0.209000000     3.219000000
H     1.867000000     0.393000000     2.644000000
H     0.730000000     1.795000000     2.809000000
C     1.182000000    -0.415000000     0.257000000
H     2.154000000    -0.769000000     0.591000000
C     0.777000000    -0.822000000    -1.004000000
H     1.479000000    -1.463000000    -1.532000000
C    -0.472000000    -0.412000000    -1.475000000
C    -0.961000000    -0.883000000    -2.773000000
O    -0.261000000    -1.701000000    -3.416000000
O    -2.037000000    -0.545000000    -3.145000000
O     2.325000000     2.598000000    -4.694000000
H     1.392000000     2.400000000    -4.612000000
H     2.726000000     2.183000000    -3.931000000
O    -3.323000000     3.503000000     0.031000000
H    -3.709000000     4.283000000     0.428000000
H    -2.444000000     3.778000000    -0.232000000
O    -2.720000000    -1.533000000     3.238000000
H    -2.021000000    -1.987000000     2.767000000
H    -2.338000000    -1.326000000     4.091000000
O    -3.022000000    -2.096000000    -5.153000000
H    -2.433000000    -1.463000000    -4.743000000
H    -3.412000000    -2.570000000    -4.419000000
O    -5.767000000     0.045000000    -4.507000000
H    -6.283000000    -0.459000000    -3.877000000
H    -4.949000000     0.237000000    -4.048000000
O     2.245000000    -2.299000000     4.584000000
H     2.322000000    -2.841000000     3.799000000
H     2.398000000    -2.904000000     5.310000000
O     4.525000000    -2.271000000    -2.918000000
H     3.808000000    -2.905000000    -2.941000000
H     5.085000000    -2.569000000    -2.202000000
O    -0.337000000    -1.517000000     5.311000000
H    -0.235000000    -1.451000000     6.260000000
H     0.546000000    -1.697000000     4.987000000
O    -2.543000000     1.271000000     3.603000000
H    -1.708000000     1.356000000     4.063000000
H    -2.366000000     0.647000000     2.899000000
O    -1.667000000     4.150000000    -3.956000000
H    -1.854000000     4.424000000    -4.854000000
H    -2.301000000     3.455000000    -3.781000000
O    -3.071000000     1.756000000    -3.522000000
H    -2.562000000     1.031000000    -3.159000000
H    -3.388000000     1.428000000    -4.364000000
O     4.944000000    -3.790000000     1.649000000
H     5.214000000    -4.171000000     2.484000000
H     4.131000000    -4.244000000     1.430000000
O     4.335000000     1.616000000    -1.344000000
H     5.132000000     1.998000000    -1.713000000
H     4.104000000     0.913000000    -1.952000000
O    -7.331000000     1.064000000    -0.038000000
H    -7.497000000     2.000000000     0.070000000
H    -6.386000000     0.972000000     0.085000000
O     1.661000000    -5.281000000    -1.532000000
H     1.685000000    -6.094000000    -2.037000000
H     1.622000000    -4.590000000    -2.193000000
O    -0.834000000     4.859000000     0.706000000
H    -1.075000000     5.500000000     1.375000000
H     0.056000000     4.595000000     0.937000000
O    -2.844000000     0.813000000    -6.127000000
H    -2.874000000     0.371000000    -6.976000000
H    -3.515000000     1.492000000    -6.187000000
O    -1.763000000     0.538000000     7.411000000
H    -1.396000000     1.211000000     6.838000000
H    -1.120000000    -0.170000000     7.393000000
O     0.528000000    -4.667000000     3.089000000
H     1.134000000    -5.264000000     2.652000000
H     0.027000000    -4.269000000     2.377000000
O     2.439000000     4.595000000     5.368000000
H     3.211000000     5.061000000     5.687000000
H     2.512000000     3.720000000     5.751000000
O    -1.423000000    -4.359000000    -3.531000000
H    -0.992000000    -3.504000000    -3.541000000
H    -1.241000000    -4.729000000    -4.394000000
O    -5.203000000     2.391000000    -1.710000000
H    -5.270000000     1.623000000    -1.143000000
H    -4.365000000     2.790000000    -1.477000000
O    -0.381000000     2.118000000     5.854000000
H    -0.410000000     2.972000000     5.422000000
H     0.362000000     2.178000000     6.454000000
O    -1.390000000    -3.887000000     4.614000000
H    -0.654000000    -4.099000000     4.039000000
H    -1.243000000    -2.976000000     4.865000000
O    -6.813000000    -2.596000000    -3.009000000
H    -5.870000000    -2.712000000    -2.895000000
H    -7.149000000    -2.473000000    -2.122000000
O    -0.373000000     4.902000000     5.412000000
H    -0.639000000     5.812000000     5.279000000
H     0.578000000     4.913000000     5.302000000
O    -1.586000000     5.781000000    -1.763000000
H    -1.508000000     5.273000000    -2.571000000
H    -1.039000000     5.314000000    -1.132000000
O     5.894000000    -1.158000000     2.234000000
H     5.430000000    -0.398000000     1.884000000
H     5.387000000    -1.911000000     1.928000000
O     0.569000000    -0.649000000    -5.708000000
H     0.354000000     0.270000000    -5.548000000
H     0.124000000    -1.125000000    -5.007000000
O    -2.523000000    -4.066000000    -1.205000000
H    -2.253000000    -4.456000000    -2.036000000
H    -1.863000000    -4.359000000    -0.577000000
O    -4.847000000     0.265000000    -0.216000000
H    -5.032000000    -0.590000000    -0.604000000
H    -4.262000000     0.074000000     0.517000000
O    -4.272000000     3.679000000     4.202000000
H    -4.110000000     3.359000000     5.089000000
H    -3.981000000     2.967000000     3.633000000
O     1.699000000    -3.400000000    -3.612000000
H     1.178000000    -3.983000000    -4.165000000
H     1.218000000    -2.573000000    -3.616000000
O     3.263000000     0.023000000    -3.492000000
H     2.803000000    -0.237000000    -4.290000000
H     3.630000000    -0.793000000    -3.150000000
O     0.256000000    -4.747000000    -5.978000000
H    -0.485000000    -5.085000000    -6.480000000
H     0.991000000    -4.770000000    -6.591000000
O    -0.363000000     1.888000000    -5.199000000
H    -1.270000000     1.628000000    -5.036000000
H    -0.402000000     2.402000000    -6.006000000
O     0.407000000     3.488000000    -2.379000000
H     0.223000000     2.568000000    -2.190000000
H    -0.027000000     3.653000000    -3.216000000
O     4.579000000    -0.164000000     4.489000000
H     5.026000000    -0.583000000     3.754000000
H     4.224000000    -0.891000000     5.000000000
O    -3.554000000    -2.423000000    -7.874000000
H    -3.302000000    -2.395000000    -6.951000000
H    -3.072000000    -1.700000000    -8.276000000
O    -5.104000000    -0.611000000     2.468000000
H    -4.204000000    -0.788000000     2.742000000
H    -5.403000000     0.080000000     3.059000000
O     4.533000000     1.160000000     1.615000000
H     3.842000000     1.292000000     2.264000000
H     4.096000000     1.278000000     0.772000000
O    -4.275000000    -2.081000000    -2.225000000
H    -3.625000000    -1.399000000    -2.394000000
H    -3.782000000    -2.782000000    -1.799000000
O    -0.147000000    -2.125000000    -7.872000000
H    -0.286000000    -2.844000000    -7.256000000
H     0.403000000    -1.504000000    -7.395000000
O     4.804000000     2.496000000     5.320000000
H     4.876000000     1.612000000     4.961000000
H     5.407000000     3.019000000     4.792000000
O    -1.062000000    -2.597000000     1.495000000
H    -1.160000000    -1.979000000     0.772000000
H    -1.159000000    -3.459000000     1.089000000
O     2.424000000    -5.219000000     1.126000000
H     2.296000000    -4.947000000     0.217000000
H     2.268000000    -6.163000000     1.118000000
O     2.147000000     3.075000000    -0.173000000
H     1.481000000     3.389000000    -0.784000000
H     2.726000000     2.532000000    -0.707000000
O     1.870000000     5.281000000     1.150000000
H     2.553000000     5.234000000     1.819000000
H     2.196000000     4.733000000     0.436000000
