161
-3012.45914
C    -0.928000000     1.216000000    -0.014000000
H    -1.645000000     2.030000000     0.059000000
C    -0.234000000     0.705000000     1.059000000
H    -0.326000000     1.120000000     2.059000000
C     0.666000000    -0.403000000     0.945000000
C     1.445000000    -0.941000000     2.151000000
H     1.826000000    -0.065000000     2.681000000
H     0.827000000    -1.495000000     2.861000000
H     2.264000000    -1.591000000     1.837000000
C     0.831000000    -1.054000000    -0.296000000
H     1.554000000    -1.864000000    -0.349000000
C     0.153000000    -0.521000000    -1.399000000
H     0.298000000    -0.962000000    -2.382000000
C    -0.765000000     0.548000000    -1.267000000
C    -1.717000000     1.062000000    -2.365000000
O    -1.487000000     0.593000000    -3.457000000
O    -2.756000000     1.626000000    -2.128000000
O     2.382000000    -7.202000000     0.089000000
H     1.955000000    -6.361000000     0.252000000
H     3.316000000    -7.020000000     0.196000000
O     5.618000000    -2.960000000     2.004000000
H     6.197000000    -2.447000000     1.440000000
H     6.194000000    -3.602000000     2.419000000
O    -0.607000000    -6.335000000     0.075000000
H    -1.196000000    -5.652000000     0.395000000
H    -0.201000000    -5.956000000    -0.705000000
O    -3.944000000     1.458000000     1.673000000
H    -3.181000000     1.488000000     2.250000000
H    -4.088000000     0.525000000     1.513000000
O    -2.000000000    -1.772000000    -4.294000000
H    -2.940000000    -1.785000000    -4.111000000
H    -1.722000000    -0.889000000    -4.051000000
O     2.028000000     3.451000000    -4.812000000
H     1.450000000     2.707000000    -4.980000000
H     2.564000000     3.174000000    -4.068000000
O    -2.413000000    -3.413000000    -1.049000000
H    -1.759000000    -3.463000000    -0.352000000
H    -3.244000000    -3.600000000    -0.611000000
O     3.406000000    -2.277000000    -2.865000000
H     3.173000000    -3.009000000    -2.294000000
H     4.361000000    -2.231000000    -2.816000000
O    -2.364000000     1.117000000     3.929000000
H    -2.892000000     0.534000000     4.475000000
H    -2.208000000     1.885000000     4.478000000
O    -7.025000000    -0.489000000    -1.137000000
H    -6.110000000    -0.369000000    -1.391000000
H    -6.985000000    -0.796000000    -0.231000000
O     0.062000000     1.478000000    -5.275000000
H    -0.583000000     1.226000000    -4.614000000
H    -0.037000000     0.826000000    -5.968000000
O    -2.289000000     2.448000000    -7.105000000
H    -2.632000000     2.219000000    -6.241000000
H    -2.079000000     1.607000000    -7.510000000
O     1.441000000    -1.942000000     6.286000000
H     2.328000000    -1.592000000     6.201000000
H     1.463000000    -2.769000000     5.805000000
O     0.909000000     3.722000000    -1.403000000
H     0.161000000     4.319000000    -1.409000000
H     0.940000000     3.385000000    -0.508000000
O     3.922000000    -2.565000000    -5.986000000
H     3.745000000    -3.492000000    -5.829000000
H     3.405000000    -2.107000000    -5.323000000
O    -4.251000000    -0.564000000    -1.732000000
H    -4.441000000    -1.059000000    -2.529000000
H    -3.701000000     0.162000000    -2.027000000
O     5.578000000     0.035000000    -0.445000000
H     5.858000000    -0.684000000     0.121000000
H     5.376000000    -0.384000000    -1.282000000
O     2.752000000     2.964000000     1.716000000
H     3.618000000     2.724000000     1.389000000
H     2.829000000     3.892000000     1.938000000
O     0.366000000     0.744000000     5.829000000
H     0.154000000     0.827000000     4.899000000
H     0.823000000    -0.095000000     5.896000000
O    -0.958000000    -3.766000000     1.131000000
H    -0.462000000    -4.221000000     1.812000000
H    -0.725000000    -2.844000000     1.240000000
O    -4.970000000    -1.896000000    -4.155000000
H    -5.311000000    -1.645000000    -5.014000000
H    -5.005000000    -2.852000000    -4.154000000
O     1.799000000    -0.842000000    -4.620000000
H     2.298000000    -1.202000000    -3.886000000
H     1.244000000    -0.170000000    -4.224000000
O    -6.834000000     1.716000000    -3.218000000
H    -6.733000000     1.734000000    -2.266000000
H    -5.963000000     1.930000000    -3.554000000
O     0.996000000    -5.124000000    -1.798000000
H     0.750000000    -4.513000000    -2.493000000
H     1.940000000    -5.001000000    -1.694000000
O    -5.294000000     2.971000000     3.939000000
H    -5.848000000     2.245000000     4.227000000
H    -5.034000000     2.734000000     3.048000000
O    -3.210000000    -4.302000000     2.836000000
H    -3.804000000    -4.977000000     2.509000000
H    -2.733000000    -4.006000000     2.061000000
O     1.971000000    -4.580000000     5.595000000
H     2.915000000    -4.715000000     5.510000000
H     1.670000000    -5.320000000     6.122000000
O     3.814000000    -0.699000000     5.357000000
H     3.863000000     0.226000000     5.597000000
H     4.030000000    -0.716000000     4.425000000
O     3.649000000    -4.514000000    -1.362000000
H     3.983000000    -5.200000000    -1.940000000
H     4.261000000    -4.501000000    -0.627000000
O    -4.258000000    -1.487000000     3.150000000
H    -4.016000000    -1.783000000     4.028000000
H    -3.433000000    -1.479000000     2.665000000
O     2.633000000     2.842000000     6.344000000
H     1.863000000     2.291000000     6.486000000
H     2.284000000     3.731000000     6.289000000
O     0.735000000    -0.199000000    -7.249000000
H     1.194000000     0.354000000    -7.881000000
H     1.433000000    -0.611000000    -6.739000000
O    -4.608000000     5.752000000     0.219000000
H    -5.060000000     5.591000000     1.047000000
H    -4.182000000     4.920000000     0.013000000
O    -3.867000000     3.243000000    -0.255000000
H    -4.012000000     2.480000000     0.305000000
H    -3.567000000     2.876000000    -1.087000000
O     0.166000000    -3.621000000    -4.080000000
H     0.826000000    -3.150000000    -4.588000000
H    -0.624000000    -3.086000000    -4.161000000
O    -3.407000000    -4.585000000    -3.201000000
H    -4.037000000    -4.952000000    -2.581000000
H    -2.903000000    -3.956000000    -2.686000000
O     3.033000000     1.872000000    -2.191000000
H     3.259000000     1.473000000    -1.350000000
H     2.178000000     2.275000000    -2.042000000
O    -4.943000000     4.866000000    -3.182000000
H    -4.849000000     5.450000000    -3.935000000
H    -5.780000000     5.114000000    -2.790000000
O     0.941000000    -4.770000000     2.897000000
H     1.160000000    -4.619000000     3.817000000
H     1.777000000    -4.697000000     2.437000000
O    -4.075000000     2.556000000    -4.330000000
H    -3.644000000     2.072000000    -3.626000000
H    -4.311000000     3.395000000    -3.935000000
O     3.182000000    -4.508000000     1.654000000
H     3.875000000    -3.853000000     1.727000000
H     3.639000000    -5.347000000     1.695000000
O    -1.990000000    -0.528000000    -7.346000000
H    -2.228000000    -0.713000000    -6.437000000
H    -1.033000000    -0.502000000    -7.342000000
O     0.017000000     3.679000000     2.112000000
H    -0.414000000     3.523000000     2.952000000
H     0.843000000     3.200000000     2.173000000
O    -1.359000000     3.840000000     4.764000000
H    -1.881000000     3.756000000     5.562000000
H    -1.674000000     4.646000000     4.356000000
O    -6.654000000     2.736000000    -0.626000000
H    -5.728000000     2.892000000    -0.442000000
H    -6.985000000     3.584000000    -0.925000000
O    -2.719000000    -1.116000000     0.838000000
H    -2.061000000    -0.540000000     0.448000000
H    -3.187000000    -1.486000000     0.089000000
O    -1.685000000     4.215000000    -3.204000000
H    -2.327000000     4.274000000    -3.912000000
H    -1.610000000     3.278000000    -3.025000000
O    -1.424000000     4.880000000     0.053000000
H    -2.277000000     4.456000000    -0.042000000
H    -0.980000000     4.375000000     0.734000000
