161
-3073.22810
C    -1.211000000    -0.630000000    -0.576000000
H    -2.203000000    -0.958000000    -0.879000000
C    -1.072000000     0.742000000    -0.167000000
H    -1.921000000     1.419000000    -0.223000000
C     0.203000000     1.204000000     0.241000000
C     0.302000000     2.639000000     0.676000000
H     0.591000000     3.337000000    -0.113000000
H    -0.653000000     2.907000000     1.134000000
H     1.017000000     2.843000000     1.475000000
C     1.226000000     0.287000000     0.389000000
H     2.179000000     0.560000000     0.835000000
C     1.077000000    -1.043000000     0.020000000
H     1.893000000    -1.697000000     0.319000000
C    -0.124000000    -1.491000000    -0.584000000
C    -0.410000000    -2.974000000    -0.764000000
O     0.582000000    -3.711000000    -0.673000000
O    -1.482000000    -3.442000000    -1.116000000
O    -1.241000000     4.244000000    -2.341000000
H    -2.142000000     4.543000000    -2.222000000
H    -0.720000000     4.821000000    -1.782000000
O     2.953000000    -3.260000000    -1.853000000
H     2.926000000    -3.625000000    -2.738000000
H     2.053000000    -3.337000000    -1.535000000
O    -1.350000000    -3.630000000     2.344000000
H    -0.597000000    -3.917000000     2.860000000
H    -1.369000000    -4.226000000     1.596000000
O    -1.039000000    -0.565000000    -5.739000000
H    -0.457000000    -0.141000000    -6.370000000
H    -1.003000000    -0.003000000    -4.965000000
O     0.787000000    -2.750000000    -5.862000000
H     0.140000000    -3.145000000    -5.278000000
H     0.531000000    -1.829000000    -5.913000000
O    -5.438000000     0.767000000    -2.843000000
H    -4.558000000     1.144000000    -2.826000000
H    -5.626000000     0.639000000    -3.772000000
O     4.743000000    -0.180000000     1.202000000
H     4.433000000    -0.907000000     1.741000000
H     4.627000000     0.594000000     1.753000000
O     0.545000000     0.095000000    -3.270000000
H    -0.048000000     0.528000000    -2.656000000
H     1.196000000    -0.332000000    -2.713000000
O    -3.401000000    -1.274000000    -4.327000000
H    -4.000000000    -0.773000000    -4.880000000
H    -2.560000000    -1.230000000    -4.783000000
O     2.193000000     3.900000000    -2.160000000
H     2.667000000     3.540000000    -1.411000000
H     1.634000000     3.183000000    -2.458000000
O     2.401000000     5.971000000    -3.849000000
H     3.147000000     6.511000000    -3.587000000
H     2.344000000     5.297000000    -3.172000000
O     1.766000000     3.669000000     6.619000000
H     1.092000000     3.802000000     5.951000000
H     1.575000000     4.328000000     7.286000000
O    -0.172000000     5.846000000    -0.509000000
H    -0.132000000     6.755000000    -0.210000000
H     0.734000000     5.540000000    -0.465000000
O    -4.759000000    -5.275000000    -3.326000000
H    -4.319000000    -4.480000000    -3.025000000
H    -4.323000000    -5.984000000    -2.852000000
O     0.855000000    -5.488000000     3.240000000
H     1.364000000    -5.264000000     2.461000000
H     1.426000000    -5.258000000     3.973000000
O     1.070000000    -5.460000000    -2.520000000
H     0.439000000    -5.121000000    -3.155000000
H     0.984000000    -4.881000000    -1.763000000
O    -3.068000000     1.909000000    -2.901000000
H    -2.453000000     1.948000000    -3.634000000
H    -2.657000000     2.437000000    -2.216000000
O     0.091000000    -7.218000000    -0.243000000
H    -0.654000000    -7.287000000     0.355000000
H    -0.164000000    -6.538000000    -0.867000000
O    -4.575000000     2.681000000     0.254000000
H    -4.443000000     2.043000000     0.956000000
H    -5.318000000     2.340000000    -0.243000000
O    -6.538000000    -4.525000000    -1.185000000
H    -5.607000000    -4.737000000    -1.254000000
H    -6.756000000    -4.126000000    -2.027000000
O     5.555000000     2.349000000     2.120000000
H     6.323000000     2.838000000     1.824000000
H     5.495000000     2.540000000     3.056000000
O    -2.517000000    -1.137000000     2.461000000
H    -2.198000000    -0.628000000     1.715000000
H    -2.365000000    -2.048000000     2.211000000
O    -0.258000000     7.059000000    -3.714000000
H     0.699000000     7.059000000    -3.705000000
H    -0.499000000     6.153000000    -3.521000000
O    -0.620000000     1.170000000     3.997000000
H    -1.129000000     0.526000000     4.489000000
H    -1.242000000     1.872000000     3.806000000
O     0.249000000    -1.570000000     4.437000000
H     0.181000000    -1.260000000     3.533000000
H     1.183000000    -1.739000000     4.562000000
O     3.728000000     4.289000000     1.390000000
H     3.780000000     4.634000000     2.282000000
H     4.234000000     3.477000000     1.417000000
O    -3.401000000    -6.477000000     1.140000000
H    -4.356000000    -6.542000000     1.170000000
H    -3.116000000    -6.733000000     2.017000000
O     2.813000000     6.339000000    -0.009000000
H     3.172000000     5.543000000     0.383000000
H     3.549000000     6.727000000    -0.482000000
O    -2.498000000    -5.778000000    -1.319000000
H    -2.058000000    -4.949000000    -1.133000000
H    -2.894000000    -6.032000000    -0.485000000
O    -0.914000000    -3.974000000    -3.673000000
H    -1.475000000    -4.672000000    -4.012000000
H    -1.260000000    -3.792000000    -2.799000000
O     0.269000000     5.901000000     2.577000000
H    -0.652000000     5.818000000     2.330000000
H     0.734000000     5.970000000     1.743000000
O    -2.726000000     2.837000000     3.457000000
H    -3.431000000     2.485000000     2.914000000
H    -3.090000000     3.640000000     3.830000000
O     3.901000000    -0.563000000    -2.668000000
H     4.682000000    -0.526000000    -3.220000000
H     3.823000000    -1.485000000    -2.424000000
O     3.919000000     1.800000000    -1.174000000
H     3.932000000     1.045000000    -1.761000000
H     4.488000000     1.549000000    -0.447000000
O     4.181000000    -2.401000000     2.737000000
H     3.999000000    -2.128000000     3.637000000
H     3.706000000    -3.225000000     2.636000000
O    -4.540000000     0.855000000     2.446000000
H    -3.899000000     0.231000000     2.786000000
H    -5.231000000     0.309000000     2.072000000
O     1.944000000     1.203000000     4.626000000
H     1.108000000     1.028000000     4.195000000
H     1.896000000     2.125000000     4.877000000
O     2.429000000    -8.273000000     0.086000000
H     2.106000000    -8.805000000     0.814000000
H     1.651000000    -7.824000000    -0.245000000
O    -0.434000000     4.148000000     4.982000000
H    -1.039000000     3.423000000     4.827000000
H    -0.395000000     4.610000000     4.145000000
O     5.506000000    -2.378000000    -0.599000000
H     5.305000000    -1.761000000     0.105000000
H     4.676000000    -2.823000000    -0.771000000
O    -6.472000000    -1.091000000    -0.906000000
H    -5.984000000    -1.877000000    -1.150000000
H    -6.185000000    -0.427000000    -1.533000000
O    -3.956000000    -2.813000000    -2.193000000
H    -3.219000000    -2.927000000    -1.592000000
H    -3.598000000    -2.300000000    -2.917000000
O     2.161000000    -8.053000000    -2.702000000
H     1.606000000    -7.274000000    -2.659000000
H     2.270000000    -8.320000000    -1.790000000
O    -2.530000000     5.640000000     2.286000000
H    -3.194000000     5.302000000     1.686000000
H    -2.913000000     5.526000000     3.156000000
O    -0.754000000     2.770000000    -4.637000000
H     0.010000000     3.031000000    -5.151000000
H    -0.637000000     3.209000000    -3.795000000
O     2.586000000    -4.118000000     1.310000000
H     1.977000000    -3.755000000     0.666000000
H     3.104000000    -4.754000000     0.818000000
O    -3.659000000     4.903000000    -1.360000000
H    -3.730000000     5.698000000    -0.831000000
H    -3.682000000     4.189000000    -0.722000000
O     5.519000000     4.003000000    -1.670000000
H     6.433000000     3.747000000    -1.550000000
H     5.017000000     3.302000000    -1.254000000
