161
-3042.09086
C    -0.918000000    -0.185000000     1.166000000
H    -1.469000000    -0.290000000     2.097000000
C     0.163000000    -1.018000000     0.829000000
H     0.276000000    -1.853000000     1.515000000
C     0.953000000    -0.769000000    -0.241000000
C     2.163000000    -1.646000000    -0.624000000
H     2.174000000    -2.009000000    -1.654000000
H     3.062000000    -1.034000000    -0.524000000
H     2.261000000    -2.434000000     0.125000000
C     0.615000000     0.335000000    -1.030000000
H     1.319000000     0.429000000    -1.853000000
C    -0.477000000     1.204000000    -0.775000000
H    -0.709000000     2.080000000    -1.375000000
C    -1.252000000     0.933000000     0.326000000
C    -2.344000000     1.920000000     0.622000000
O    -2.738000000     2.763000000    -0.150000000
O    -3.073000000     1.573000000     1.539000000
O    -0.233000000    -6.583000000    -0.655000000
H    -0.948000000    -5.947000000    -0.673000000
H     0.479000000    -6.130000000    -0.202000000
O    -4.185000000     3.110000000    -2.427000000
H    -5.034000000     2.872000000    -2.054000000
H    -3.624000000     3.264000000    -1.667000000
O     3.321000000    -0.668000000    -4.726000000
H     3.739000000     0.126000000    -5.060000000
H     3.620000000    -0.732000000    -3.819000000
O    -0.305000000    -0.821000000     4.466000000
H     0.096000000    -1.657000000     4.228000000
H    -0.668000000    -0.970000000     5.339000000
O    -6.540000000     2.478000000    -1.326000000
H    -6.767000000     1.644000000    -1.737000000
H    -7.249000000     3.070000000    -1.580000000
O     1.519000000     4.736000000    -0.395000000
H     0.708000000     5.208000000    -0.211000000
H     2.098000000     4.960000000     0.334000000
O     1.858000000    -2.885000000     4.173000000
H     2.684000000    -2.516000000     4.486000000
H     2.095000000    -3.361000000     3.377000000
O     1.405000000     4.972000000    -3.090000000
H     1.164000000     5.893000000    -3.186000000
H     1.312000000     4.796000000    -2.153000000
O     1.805000000     0.655000000     3.128000000
H     1.290000000    -0.142000000     3.254000000
H     2.201000000     0.551000000     2.263000000
O    -5.605000000     2.144000000     1.254000000
H    -5.873000000     2.305000000     0.349000000
H    -4.684000000     1.892000000     1.189000000
O    -1.024000000     2.391000000     5.047000000
H    -0.284000000     2.801000000     5.496000000
H    -0.674000000     1.563000000     4.717000000
O     6.160000000    -2.078000000    -5.372000000
H     6.604000000    -2.870000000    -5.068000000
H     5.574000000    -1.842000000    -4.653000000
O     4.733000000     0.103000000     1.816000000
H     4.303000000     0.923000000     1.578000000
H     5.667000000     0.316000000     1.827000000
O    -4.529000000     4.615000000     0.748000000
H    -5.116000000     4.095000000     1.297000000
H    -3.828000000     4.010000000     0.507000000
O    -5.877000000    -2.662000000     0.804000000
H    -5.260000000    -2.229000000     0.214000000
H    -5.623000000    -2.363000000     1.677000000
O     3.242000000     2.554000000     0.742000000
H     2.853000000     3.215000000     1.314000000
H     2.565000000     2.374000000     0.089000000
O     7.483000000    -0.561000000    -1.502000000
H     7.405000000    -0.001000000    -0.730000000
H     8.147000000    -0.132000000    -2.042000000
O     0.543000000    -3.458000000    -3.242000000
H    -0.092000000    -2.966000000    -2.722000000
H     0.063000000    -4.231000000    -3.539000000
O    -6.582000000    -0.048000000     2.755000000
H    -5.737000000    -0.404000000     3.031000000
H    -6.369000000     0.804000000     2.373000000
O    -1.366000000    -1.767000000    -2.020000000
H    -0.994000000    -1.118000000    -1.423000000
H    -1.531000000    -1.282000000    -2.829000000
O     4.624000000    -4.383000000    -0.882000000
H     5.563000000    -4.572000000    -0.875000000
H     4.517000000    -3.679000000    -0.241000000
O    -3.904000000     1.424000000    -4.615000000
H    -3.949000000     1.910000000    -5.439000000
H    -4.049000000     2.086000000    -3.939000000
O     3.360000000    -3.815000000     2.260000000
H     3.605000000    -4.568000000     2.798000000
H     4.188000000    -3.506000000     1.892000000
O    -4.703000000    -1.658000000     5.839000000
H    -4.596000000    -1.499000000     4.901000000
H    -4.250000000    -0.927000000     6.259000000
O    -5.845000000     5.411000000    -1.461000000
H    -5.221000000     4.758000000    -1.779000000
H    -5.665000000     5.478000000    -0.523000000
O    -1.335000000     0.365000000    -3.767000000
H    -0.527000000     0.782000000    -4.069000000
H    -2.035000000     0.898000000    -4.144000000
O    -7.030000000     3.479000000     3.384000000
H    -6.417000000     3.167000000     2.718000000
H    -6.982000000     2.823000000     4.079000000
O    -2.842000000     3.612000000     3.263000000
H    -2.240000000     3.310000000     3.943000000
H    -3.019000000     2.832000000     2.737000000
O     4.662000000     1.644000000    -5.466000000
H     4.164000000     2.041000000    -6.180000000
H     4.367000000     2.107000000    -4.682000000
O    -2.038000000    -3.406000000     2.130000000
H    -1.881000000    -3.709000000     1.236000000
H    -2.822000000    -3.879000000     2.409000000
O     0.165000000     0.339000000    -6.823000000
H     0.678000000    -0.235000000    -7.392000000
H     0.813000000     0.747000000    -6.248000000
O     3.598000000     2.567000000    -3.053000000
H     4.216000000     2.181000000    -2.432000000
H     3.574000000     3.495000000    -2.822000000
O     5.344000000    -1.536000000    -2.744000000
H     6.176000000    -1.070000000    -2.666000000
H     5.255000000    -2.009000000    -1.916000000
O     6.082000000     2.720000000     0.413000000
H     5.125000000     2.691000000     0.404000000
H     6.319000000     3.079000000    -0.442000000
O     5.324000000    -2.280000000     0.889000000
H     5.178000000    -1.365000000     1.128000000
H     6.194000000    -2.288000000     0.491000000
O    -4.007000000    -0.976000000    -0.440000000
H    -3.682000000    -0.241000000    -0.960000000
H    -3.315000000    -1.142000000     0.200000000
O     4.283000000    -1.362000000     4.474000000
H     4.240000000    -1.269000000     3.522000000
H     5.204000000    -1.207000000     4.688000000
O    -1.750000000    -4.291000000    -0.495000000
H    -2.570000000    -4.281000000    -0.990000000
H    -1.362000000    -3.431000000    -0.656000000
O     1.207000000     1.298000000    -4.359000000
H     1.755000000     0.524000000    -4.231000000
H     1.667000000     1.997000000    -3.893000000
O    -3.704000000     7.085000000     0.475000000
H    -3.689000000     7.291000000    -0.460000000
H    -3.798000000     6.134000000     0.510000000
O     2.158000000    -5.545000000     0.428000000
H     2.477000000    -5.454000000    -0.469000000
H     2.699000000    -4.941000000     0.937000000
O     0.843000000    -4.429000000     6.087000000
H     1.695000000    -4.451000000     6.523000000
H     1.012000000    -3.992000000     5.252000000
O     1.997000000    -3.040000000    -5.636000000
H     2.674000000    -2.379000000    -5.489000000
H     1.398000000    -2.937000000    -4.897000000
O    -0.989000000     5.536000000     2.285000000
H    -1.504000000     4.756000000     2.489000000
H    -1.077000000     5.641000000     1.338000000
O    -3.902000000    -1.471000000     3.234000000
H    -3.717000000    -0.596000000     2.893000000
H    -3.167000000    -2.006000000     2.934000000
O    -1.254000000     5.244000000    -0.493000000
H    -1.541000000     4.331000000    -0.455000000
H    -1.531000000     5.546000000    -1.358000000
O     3.050000000    -4.972000000    -3.094000000
H     2.425000000    -4.261000000    -3.233000000
H     3.634000000    -4.647000000    -2.408000000
O    -4.486000000     6.009000000     4.067000000
H    -3.865000000     5.596000000     3.468000000
H    -4.291000000     5.620000000     4.920000000
