161
-3034.29203
C    -1.370000000    -0.118000000     0.681000000
H    -2.239000000    -0.289000000     1.311000000
C    -0.528000000    -1.168000000     0.349000000
H    -0.690000000    -2.170000000     0.739000000
C     0.682000000    -0.996000000    -0.286000000
C     1.635000000    -2.158000000    -0.446000000
H     1.232000000    -3.150000000    -0.231000000
H     1.864000000    -2.225000000    -1.511000000
H     2.479000000    -1.899000000     0.197000000
C     1.041000000     0.297000000    -0.776000000
H     2.013000000     0.476000000    -1.229000000
C     0.200000000     1.349000000    -0.467000000
H     0.443000000     2.384000000    -0.693000000
C    -0.969000000     1.165000000     0.260000000
C    -1.757000000     2.490000000     0.618000000
O    -1.440000000     3.483000000    -0.001000000
O    -2.604000000     2.522000000     1.484000000
O    -0.183000000    -6.577000000    -1.650000000
H    -0.712000000    -6.106000000    -1.007000000
H    -0.258000000    -6.056000000    -2.449000000
O    -4.417000000     4.498000000    -3.683000000
H    -4.996000000     5.236000000    -3.491000000
H    -3.622000000     4.681000000    -3.181000000
O     4.975000000    -2.578000000    -0.933000000
H     5.178000000    -1.794000000    -0.424000000
H     5.799000000    -3.065000000    -0.962000000
O     2.608000000     0.710000000     4.643000000
H     2.777000000    -0.181000000     4.951000000
H     2.274000000     0.596000000     3.753000000
O    -2.123000000    -5.262000000    -0.082000000
H    -2.984000000    -5.623000000     0.133000000
H    -2.222000000    -4.918000000    -0.969000000
O     3.262000000    -4.974000000    -1.566000000
H     4.000000000    -5.567000000    -1.428000000
H     3.600000000    -4.111000000    -1.326000000
O    -0.082000000     3.015000000    -3.980000000
H    -0.866000000     2.472000000    -3.906000000
H    -0.225000000     3.537000000    -4.770000000
O    -0.050000000    -1.613000000    -4.728000000
H    -0.340000000    -1.498000000    -3.823000000
H    -0.668000000    -1.098000000    -5.245000000
O    -1.798000000    -0.439000000     5.033000000
H    -2.558000000    -0.735000000     4.531000000
H    -1.297000000     0.095000000     4.416000000
O    -1.920000000     7.008000000    -3.928000000
H    -1.153000000     6.759000000    -4.444000000
H    -1.932000000     6.386000000    -3.201000000
O     2.170000000     2.694000000    -2.677000000
H     1.377000000     2.876000000    -3.182000000
H     2.340000000     3.505000000    -2.199000000
O     3.134000000    -4.500000000     1.572000000
H     3.272000000    -4.469000000     0.625000000
H     3.959000000    -4.189000000     1.944000000
O    -4.727000000     2.851000000     2.990000000
H    -4.501000000     3.458000000     3.695000000
H    -3.906000000     2.714000000     2.518000000
O     0.346000000     4.810000000     0.841000000
H    -0.424000000     4.306000000     0.577000000
H     0.570000000     4.470000000     1.707000000
O     2.593000000    -6.634000000     3.524000000
H     2.605000000    -6.105000000     2.726000000
H     2.308000000    -6.028000000     4.208000000
O    -5.066000000     6.322000000     3.355000000
H    -5.383000000     5.835000000     4.115000000
H    -4.313000000     5.819000000     3.045000000
O     5.282000000    -0.340000000     1.144000000
H     5.889000000    -0.633000000     1.824000000
H     5.103000000     0.575000000     1.362000000
O    -4.761000000    -1.261000000    -0.148000000
H    -5.354000000    -1.867000000    -0.592000000
H    -4.019000000    -1.804000000     0.118000000
O    -2.879000000     7.623000000    -0.352000000
H    -2.437000000     8.423000000    -0.069000000
H    -3.552000000     7.924000000    -0.963000000
O    -6.362000000     0.521000000     0.995000000
H    -5.617000000     0.024000000     0.657000000
H    -6.560000000     0.111000000     1.838000000
O     1.806000000    -7.378000000    -0.103000000
H     1.197000000    -6.914000000    -0.678000000
H     2.547000000    -6.780000000    -0.006000000
O    -2.359000000     5.237000000    -1.718000000
H    -2.497000000     5.954000000    -1.100000000
H    -2.028000000     4.517000000    -1.181000000
O    -7.451000000     3.358000000     2.557000000
H    -6.555000000     3.039000000     2.448000000
H    -7.464000000     3.740000000     3.435000000
O    -4.791000000    -3.578000000     2.018000000
H    -4.937000000    -2.683000000     2.324000000
H    -3.905000000    -3.790000000     2.311000000
O     5.887000000    -4.048000000     1.880000000
H     6.497000000    -3.844000000     1.172000000
H     6.146000000    -4.921000000     2.176000000
O     0.873000000    -5.561000000    -3.967000000
H     1.448000000    -5.135000000    -3.331000000
H     1.470000000    -6.017000000    -4.561000000
O    -0.559000000     1.547000000     3.417000000
H    -0.994000000     2.079000000     2.750000000
H     0.165000000     1.127000000     2.953000000
O    -2.222000000    -4.242000000    -2.567000000
H    -2.211000000    -4.350000000    -3.518000000
H    -2.204000000    -3.294000000    -2.434000000
O    -3.829000000     4.194000000     5.269000000
H    -2.967000000     4.176000000     5.685000000
H    -4.276000000     4.936000000     5.677000000
O     4.575000000     1.871000000    -1.581000000
H     4.369000000     1.468000000    -0.738000000
H     3.722000000     2.025000000    -1.987000000
O     2.530000000    -2.432000000    -4.955000000
H     2.838000000    -2.225000000    -5.838000000
H     1.617000000    -2.145000000    -4.947000000
O     4.249000000     2.596000000     1.527000000
H     4.540000000     3.489000000     1.340000000
H     4.391000000     2.489000000     2.467000000
O    -4.072000000     0.891000000    -2.143000000
H    -4.223000000     1.726000000    -1.702000000
H    -4.573000000     0.255000000    -1.632000000
O     1.371000000     4.466000000     3.296000000
H     2.254000000     4.807000000     3.443000000
H     1.254000000     3.802000000     3.975000000
O    -2.914000000     5.511000000     1.944000000
H    -2.681000000     6.318000000     1.485000000
H    -3.164000000     4.904000000     1.247000000
O     2.471000000     0.848000000    -4.848000000
H     2.167000000     1.577000000    -4.307000000
H     2.967000000     0.293000000    -4.246000000
O    -1.510000000    -1.628000000    -2.442000000
H    -1.254000000    -1.646000000    -1.520000000
H    -2.143000000    -0.913000000    -2.500000000
O     1.868000000     0.819000000     1.908000000
H     2.557000000     1.478000000     1.987000000
H     1.796000000     0.657000000     0.968000000
O     6.704000000     0.200000000    -2.636000000
H     6.273000000    -0.596000000    -2.947000000
H     5.985000000     0.777000000    -2.379000000
O    -4.857000000     2.858000000     0.097000000
H    -4.068000000     2.925000000     0.635000000
H    -5.487000000     2.398000000     0.651000000
O     0.273000000    -4.695000000     1.941000000
H    -0.232000000    -5.334000000     1.437000000
H     1.103000000    -4.621000000     1.470000000
O     4.006000000    -0.906000000    -3.150000000
H     4.215000000    -1.354000000    -2.331000000
H     3.677000000    -1.597000000    -3.725000000
O     0.788000000     5.197000000    -1.997000000
H     0.779000000     5.252000000    -1.042000000
H    -0.112000000     4.974000000    -2.233000000
O    -2.037000000    -3.290000000     2.712000000
H    -1.314000000    -3.809000000     2.360000000
H    -1.656000000    -2.820000000     3.454000000
O     4.319000000    -4.351000000    -4.138000000
H     3.723000000    -3.627000000    -4.331000000
H     3.903000000    -4.816000000    -3.412000000
O    -4.019000000    -1.057000000     3.743000000
H    -4.626000000    -1.124000000     4.480000000
H    -4.366000000    -0.342000000     3.210000000
O     1.182000000    -4.678000000     4.603000000
H     1.361000000    -3.739000000     4.647000000
H     0.797000000    -4.808000000     3.736000000
O    -1.069000000     5.686000000     3.917000000
H    -1.654000000     5.384000000     3.222000000
H    -0.227000000     5.277000000     3.716000000
