161
-3028.12690
C    -1.120000000     0.258000000     0.962000000
H    -1.877000000     0.265000000     1.742000000
C    -0.080000000    -0.650000000     1.097000000
H     0.078000000    -1.236000000     1.998000000
C     0.907000000    -0.774000000     0.174000000
C     2.112000000    -1.629000000     0.411000000
H     2.650000000    -1.164000000     1.240000000
H     1.913000000    -2.660000000     0.711000000
H     2.782000000    -1.705000000    -0.447000000
C     0.854000000    -0.029000000    -0.983000000
H     1.665000000    -0.174000000    -1.692000000
C    -0.156000000     0.891000000    -1.231000000
H    -0.267000000     1.517000000    -2.113000000
C    -1.202000000     0.930000000    -0.298000000
C    -2.423000000     1.808000000    -0.483000000
O    -2.606000000     2.432000000    -1.547000000
O    -3.233000000     1.912000000     0.459000000
O     4.684000000     3.435000000    -0.278000000
H     4.856000000     4.363000000    -0.436000000
H     3.896000000     3.426000000     0.265000000
O     7.526000000    -1.995000000     1.233000000
H     6.820000000    -1.436000000     0.908000000
H     7.804000000    -2.499000000     0.468000000
O    -0.310000000    -5.655000000    -0.091000000
H    -0.926000000    -5.336000000    -0.751000000
H     0.551000000    -5.406000000    -0.427000000
O    -3.400000000    -0.153000000     5.964000000
H    -3.289000000    -0.934000000     6.505000000
H    -3.363000000    -0.477000000     5.064000000
O    -4.128000000     1.152000000    -3.428000000
H    -5.011000000     1.261000000    -3.076000000
H    -3.550000000     1.394000000    -2.704000000
O    -4.082000000     6.763000000    -4.769000000
H    -3.829000000     6.156000000    -4.075000000
H    -4.811000000     7.261000000    -4.397000000
O     3.798000000     0.145000000    -4.078000000
H     3.747000000     0.592000000    -3.233000000
H     3.231000000    -0.620000000    -3.979000000
O    -2.146000000    -2.326000000     2.804000000
H    -2.097000000    -2.852000000     3.602000000
H    -1.320000000    -1.843000000     2.784000000
O    -6.422000000     0.919000000    -1.947000000
H    -6.095000000     1.356000000    -1.161000000
H    -6.499000000    -0.001000000    -1.695000000
O     1.228000000     4.103000000    -2.506000000
H     0.301000000     3.974000000    -2.705000000
H     1.244000000     4.861000000    -1.921000000
O     0.653000000    -4.063000000     4.095000000
H     0.398000000    -3.147000000     3.984000000
H     1.592000000    -4.029000000     4.278000000
O     1.633000000     3.815000000    -5.728000000
H     1.065000000     4.006000000    -4.981000000
H     1.323000000     4.399000000    -6.420000000
O     1.855000000     1.025000000     3.531000000
H     1.652000000     1.453000000     2.700000000
H     2.726000000     0.650000000     3.400000000
O    -5.621000000     3.358000000    -0.394000000
H    -5.412000000     4.034000000    -1.039000000
H    -4.810000000     2.858000000    -0.301000000
O     0.246000000     1.977000000     5.461000000
H     0.913000000     2.343000000     6.042000000
H     0.740000000     1.462000000     4.823000000
O     4.385000000    -0.151000000     3.246000000
H     4.986000000     0.505000000     2.892000000
H     4.786000000    -0.424000000     4.071000000
O    -0.936000000    -6.117000000     2.730000000
H    -0.724000000    -6.225000000     1.803000000
H    -0.455000000    -5.333000000     2.996000000
O    -3.214000000     5.026000000    -0.337000000
H    -2.674000000     5.279000000     0.412000000
H    -3.047000000     4.090000000    -0.447000000
O    -5.077000000    -2.261000000    -0.960000000
H    -4.472000000    -1.929000000    -1.624000000
H    -4.529000000    -2.790000000    -0.380000000
O     1.646000000     2.146000000     1.268000000
H     1.821000000     3.012000000     0.901000000
H     1.536000000     1.579000000     0.504000000
O    -6.488000000     0.074000000     4.592000000
H    -5.551000000     0.187000000     4.432000000
H    -6.535000000    -0.554000000     5.313000000
O     5.618000000    -3.124000000    -2.987000000
H     4.736000000    -3.427000000    -2.774000000
H     5.901000000    -3.694000000    -3.701000000
O     1.530000000    -4.358000000    -2.803000000
H     2.416000000    -4.706000000    -2.706000000
H     1.039000000    -5.065000000    -3.220000000
O    -7.687000000    -0.047000000     2.082000000
H    -7.417000000     0.191000000     2.969000000
H    -6.883000000     0.007000000     1.565000000
O    -0.721000000    -2.610000000    -2.315000000
H    -0.618000000    -1.711000000    -2.003000000
H     0.174000000    -2.927000000    -2.432000000
O     3.812000000    -5.580000000    -2.878000000
H     4.530000000    -5.915000000    -2.340000000
H     4.201000000    -5.451000000    -3.743000000
O    -5.479000000     0.417000000    -5.879000000
H    -5.120000000     0.695000000    -6.722000000
H    -5.066000000     0.998000000    -5.240000000
O    -4.010000000    -0.591000000     3.326000000
H    -4.330000000    -0.323000000     2.465000000
H    -3.397000000    -1.303000000     3.143000000
O    -6.143000000     2.764000000     4.161000000
H    -6.458000000     1.880000000     4.352000000
H    -5.270000000     2.632000000     3.792000000
O     0.001000000     0.247000000    -4.443000000
H     0.788000000     0.590000000    -4.864000000
H     0.325000000    -0.220000000    -3.672000000
O    -6.847000000     4.286000000     2.006000000
H    -6.189000000     4.091000000     1.339000000
H    -6.511000000     3.872000000     2.801000000
O    -3.657000000     3.004000000     2.954000000
H    -2.758000000     3.245000000     3.177000000
H    -3.587000000     2.583000000     2.097000000
O    -2.308000000    -0.129000000    -6.617000000
H    -1.591000000     0.059000000    -6.012000000
H    -3.074000000     0.280000000    -6.215000000
O    -3.620000000    -4.121000000     0.815000000
H    -3.299000000    -4.681000000     0.108000000
H    -2.903000000    -4.101000000     1.449000000
O     3.096000000     2.014000000    -2.034000000
H     3.719000000     2.493000000    -1.487000000
H     2.422000000     2.658000000    -2.250000000
O     1.831000000    -1.929000000    -3.835000000
H     1.720000000    -2.718000000    -3.305000000
H     1.386000000    -2.129000000    -4.659000000
O     5.905000000     1.959000000     2.146000000
H     6.080000000     1.421000000     1.373000000
H     6.625000000     2.590000000     2.166000000
O    -3.942000000    -1.525000000    -3.801000000
H    -4.760000000    -1.397000000    -4.281000000
H    -3.555000000    -0.651000000    -3.751000000
O    -0.108000000    -0.943000000     4.545000000
H     0.357000000    -0.311000000     3.997000000
H     0.444000000    -1.038000000     5.321000000
O     2.225000000     1.335000000    -6.227000000
H     2.874000000     1.164000000    -5.545000000
H     2.002000000     2.260000000    -6.119000000
O    -4.198000000     7.096000000    -1.730000000
H    -3.452000000     7.688000000    -1.640000000
H    -3.957000000     6.327000000    -1.215000000
O     2.475000000    -6.572000000     0.545000000
H     1.625000000    -6.900000000     0.836000000
H     3.113000000    -7.133000000     0.986000000
O    -1.581000000    -2.018000000     6.679000000
H    -1.240000000    -1.487000000     5.959000000
H    -1.853000000    -2.837000000     6.266000000
O    -0.064000000    -2.329000000    -5.679000000
H    -0.460000000    -1.629000000    -5.161000000
H    -0.622000000    -3.091000000    -5.520000000
O    -1.828000000     5.908000000     1.725000000
H    -1.872000000     6.681000000     2.287000000
H    -1.566000000     5.199000000     2.313000000
O    -5.219000000     0.221000000     0.831000000
H    -4.547000000     0.893000000     0.711000000
H    -4.950000000    -0.492000000     0.252000000
O    -1.513000000     4.320000000    -3.015000000
H    -1.594000000     3.730000000    -2.266000000
H    -2.108000000     5.042000000    -2.817000000
O    -0.876000000     3.862000000     3.541000000
H    -0.837000000     3.307000000     4.320000000
H     0.035000000     4.103000000     3.373000000
