161
-3036.45491
C    -1.442000000    -0.032000000     0.305000000
H    -2.383000000    -0.180000000     0.829000000
C    -0.598000000    -1.144000000     0.138000000
H    -0.886000000    -2.162000000     0.388000000
C     0.732000000    -1.005000000    -0.094000000
C     1.687000000    -2.153000000     0.005000000
H     2.365000000    -2.088000000    -0.848000000
H     2.156000000    -2.020000000     0.982000000
H     1.242000000    -3.149000000     0.060000000
C     1.187000000     0.236000000    -0.342000000
H     2.202000000     0.418000000    -0.686000000
C     0.378000000     1.402000000    -0.385000000
H     0.845000000     2.349000000    -0.644000000
C    -0.935000000     1.266000000     0.083000000
C    -1.923000000     2.464000000     0.051000000
O    -1.658000000     3.528000000    -0.489000000
O    -2.967000000     2.274000000     0.645000000
O    -3.638000000    -5.058000000     3.841000000
H    -3.135000000    -5.840000000     4.068000000
H    -3.165000000    -4.676000000     3.102000000
O     0.683000000    -7.543000000    -1.812000000
H     0.841000000    -6.800000000    -2.394000000
H     1.523000000    -7.689000000    -1.377000000
O     5.079000000    -4.132000000    -1.805000000
H     5.070000000    -3.219000000    -2.092000000
H     5.980000000    -4.286000000    -1.522000000
O     5.419000000    -1.586000000     3.889000000
H     5.492000000    -1.787000000     4.822000000
H     5.181000000    -2.419000000     3.483000000
O    -1.321000000    -4.956000000     0.089000000
H    -1.293000000    -5.909000000     0.173000000
H    -1.839000000    -4.800000000    -0.701000000
O     3.465000000    -6.155000000    -3.032000000
H     3.403000000    -6.892000000    -2.424000000
H     4.070000000    -5.546000000    -2.608000000
O    -5.343000000     3.986000000    -1.117000000
H    -4.935000000     3.478000000    -0.416000000
H    -4.621000000     4.203000000    -1.707000000
O    -2.381000000     1.605000000    -3.706000000
H    -2.168000000     0.784000000    -3.263000000
H    -3.333000000     1.581000000    -3.811000000
O     0.223000000    -7.617000000     2.390000000
H     0.711000000    -7.567000000     3.212000000
H     0.747000000    -7.111000000     1.769000000
O    -2.762000000    -0.165000000     4.515000000
H    -3.305000000    -0.953000000     4.501000000
H    -1.895000000    -0.476000000     4.777000000
O    -4.566000000     5.555000000    -4.315000000
H    -4.068000000     4.939000000    -3.777000000
H    -4.999000000     6.129000000    -3.683000000
O     0.612000000     1.863000000    -3.531000000
H    -0.339000000     1.781000000    -3.600000000
H     0.747000000     2.602000000    -2.939000000
O     3.209000000    -4.043000000     2.394000000
H     2.922000000    -4.161000000     1.489000000
H     4.161000000    -4.135000000     2.357000000
O    -4.249000000     1.329000000     2.643000000
H    -3.489000000     1.298000000     3.225000000
H    -3.898000000     1.643000000     1.809000000
O     0.488000000     4.670000000     1.224000000
H    -0.378000000     4.369000000     0.948000000
H     0.944000000     3.873000000     1.493000000
O    -4.524000000     5.828000000     3.379000000
H    -3.817000000     5.485000000     3.927000000
H    -4.266000000     5.600000000     2.486000000
O     6.308000000    -1.510000000    -1.255000000
H     6.812000000    -1.906000000    -0.544000000
H     5.726000000    -0.888000000    -0.818000000
O    -4.279000000    -2.824000000    -2.070000000
H    -5.130000000    -2.896000000    -2.501000000
H    -4.489000000    -2.702000000    -1.144000000
O     4.867000000     4.179000000     1.288000000
H     4.069000000     4.077000000     0.769000000
H     5.575000000     4.168000000     0.644000000
O    -6.730000000    -0.154000000     0.843000000
H    -6.889000000    -1.028000000     0.488000000
H    -6.502000000    -0.306000000     1.761000000
O     1.457000000    -5.607000000     0.723000000
H     0.709000000    -5.542000000     0.129000000
H     2.179000000    -5.902000000     0.168000000
O    -3.133000000     4.062000000    -2.643000000
H    -2.603000000     3.395000000    -3.079000000
H    -2.670000000     4.236000000    -1.823000000
O    -6.897000000     1.644000000     3.445000000
H    -6.008000000     1.292000000     3.394000000
H    -7.357000000     1.049000000     4.037000000
O    -4.383000000    -3.028000000     1.030000000
H    -4.762000000    -2.373000000     1.617000000
H    -3.543000000    -3.252000000     1.431000000
O     2.801000000     4.979000000    -0.973000000
H     2.722000000     5.545000000    -1.741000000
H     2.016000000     4.433000000    -0.995000000
O    -0.330000000    -1.184000000     5.329000000
H     0.128000000    -0.712000000     4.634000000
H     0.354000000    -1.400000000     5.963000000
O    -2.695000000    -4.950000000    -2.190000000
H    -2.211000000    -4.877000000    -3.012000000
H    -3.407000000    -4.315000000    -2.273000000
O    -1.536000000     2.107000000     5.549000000
H    -0.597000000     1.946000000     5.454000000
H    -1.950000000     1.431000000     5.012000000
O     6.699000000     0.802000000    -2.959000000
H     6.857000000     0.001000000    -2.458000000
H     6.009000000     1.255000000    -2.474000000
O     4.603000000     0.303000000     0.213000000
H     4.593000000     1.230000000    -0.022000000
H     4.367000000     0.288000000     1.141000000
O     1.048000000     3.950000000    -5.397000000
H     1.053000000     3.103000000    -4.953000000
H     1.972000000     4.189000000    -5.468000000
O    -5.080000000     1.334000000    -3.746000000
H    -5.037000000     0.996000000    -2.851000000
H    -5.866000000     1.880000000    -3.759000000
O     2.005000000     2.612000000     2.384000000
H     2.766000000     2.056000000     2.221000000
H     2.195000000     3.038000000     3.220000000
O     4.455000000     2.428000000    -1.956000000
H     3.734000000     3.054000000    -2.022000000
H     5.198000000     2.950000000    -1.654000000
O    -3.413000000     5.090000000     1.090000000
H    -2.866000000     5.304000000     0.334000000
H    -3.309000000     4.145000000     1.201000000
O     2.919000000     0.606000000    -4.134000000
H     2.174000000     1.204000000    -4.073000000
H     3.247000000     0.541000000    -3.237000000
O     4.039000000     0.604000000     3.080000000
H     4.364000000    -0.241000000     3.394000000
H     4.184000000     1.203000000     3.813000000
O    -1.884000000    -1.283000000    -2.779000000
H    -1.017000000    -1.524000000    -2.455000000
H    -2.489000000    -1.816000000    -2.264000000
O     0.882000000    -0.140000000     3.179000000
H     0.959000000    -0.668000000     2.385000000
H     1.134000000     0.742000000     2.905000000
O    -5.012000000     0.732000000    -1.053000000
H    -4.299000000     1.031000000    -0.488000000
H    -5.796000000     0.808000000    -0.509000000
O     3.167000000    -4.735000000     4.989000000
H     3.574000000    -5.597000000     4.906000000
H     3.361000000    -4.297000000     4.160000000
O     0.465000000    -4.471000000     2.943000000
H     0.529000000    -4.957000000     2.120000000
H     1.360000000    -4.457000000     3.282000000
O     0.346000000     4.407000000    -1.968000000
H     0.002000000     5.188000000    -2.400000000
H    -0.400000000     4.053000000    -1.483000000
O    -2.055000000    -3.617000000     2.201000000
H    -1.863000000    -4.065000000     1.377000000
H    -1.232000000    -3.647000000     2.688000000
O    -5.306000000    -1.204000000     2.926000000
H    -5.371000000    -1.181000000     3.880000000
H    -4.869000000    -0.384000000     2.696000000
O    -0.091000000     7.256000000     0.063000000
H    -0.157000000     7.753000000     0.878000000
H     0.472000000     6.513000000     0.280000000
O     3.140000000     6.691000000     1.246000000
H     2.636000000     6.412000000     2.010000000
H     3.129000000     5.932000000     0.662000000
O    -0.961000000     6.841000000    -2.589000000
H    -1.224000000     7.724000000    -2.848000000
H    -0.668000000     6.933000000    -1.683000000
