161
-3043.63051
C    -0.927000000     0.648000000    -0.955000000
H    -1.463000000     1.203000000    -1.720000000
C     0.404000000     0.416000000    -1.231000000
H     0.895000000     0.805000000    -2.119000000
C     1.184000000    -0.188000000    -0.237000000
C     2.697000000    -0.416000000    -0.470000000
H     2.898000000    -0.213000000    -1.524000000
H     3.221000000     0.288000000     0.180000000
H     3.040000000    -1.437000000    -0.289000000
C     0.591000000    -0.596000000     0.974000000
H     1.208000000    -1.103000000     1.711000000
C    -0.798000000    -0.398000000     1.194000000
H    -1.206000000    -0.742000000     2.141000000
C    -1.556000000     0.281000000     0.271000000
C    -2.999000000     0.538000000     0.638000000
O    -3.377000000    -0.051000000     1.578000000
O    -3.810000000     0.957000000    -0.144000000
O    -4.788000000     4.891000000     2.649000000
H    -4.311000000     4.499000000     1.917000000
H    -5.689000000     4.964000000     2.336000000
O    -0.502000000    -4.735000000     1.482000000
H    -0.927000000    -4.587000000     0.637000000
H    -1.212000000    -5.003000000     2.064000000
O    -1.809000000    -0.104000000     6.366000000
H    -1.207000000     0.280000000     5.728000000
H    -1.853000000     0.541000000     7.072000000
O    -2.880000000     3.158000000    -5.241000000
H    -3.744000000     3.446000000    -5.537000000
H    -2.544000000     2.628000000    -5.964000000
O    -5.485000000    -1.696000000    -3.736000000
H    -5.142000000    -1.738000000    -2.843000000
H    -4.859000000    -1.145000000    -4.206000000
O     0.621000000    -3.077000000     3.439000000
H     0.164000000    -3.407000000     4.213000000
H     0.354000000    -3.666000000     2.733000000
O    -1.473000000    -1.776000000    -2.912000000
H    -1.297000000    -0.857000000    -3.114000000
H    -2.350000000    -1.773000000    -2.527000000
O    -3.808000000    -1.184000000     5.206000000
H    -4.296000000    -0.367000000     5.308000000
H    -3.085000000    -1.111000000     5.828000000
O    -1.349000000     4.353000000    -0.827000000
H    -0.436000000     4.171000000    -0.606000000
H    -1.542000000     5.180000000    -0.386000000
O     5.273000000     1.232000000     2.742000000
H     6.012000000     0.827000000     3.196000000
H     4.507000000     0.980000000     3.259000000
O     2.185000000    -1.945000000    -6.370000000
H     3.070000000    -1.649000000    -6.583000000
H     1.996000000    -1.546000000    -5.521000000
O    -3.473000000    -2.983000000     1.917000000
H    -2.869000000    -2.240000000     1.914000000
H    -3.954000000    -2.903000000     1.094000000
O     7.130000000    -1.296000000    -0.384000000
H     7.661000000    -1.546000000     0.372000000
H     6.621000000    -2.080000000    -0.590000000
O    -2.799000000     1.390000000     3.908000000
H    -2.828000000     0.745000000     3.200000000
H    -2.155000000     1.041000000     4.524000000
O    -3.791000000    -1.545000000    -1.507000000
H    -3.598000000    -0.763000000    -0.989000000
H    -4.314000000    -2.095000000    -0.924000000
O     1.554000000     2.941000000     4.356000000
H     2.066000000     2.915000000     3.548000000
H     2.208000000     3.015000000     5.051000000
O     1.237000000     4.095000000    -2.428000000
H     1.609000000     3.525000000    -3.101000000
H     0.452000000     4.464000000    -2.833000000
O    -5.628000000    -3.230000000     0.101000000
H    -5.934000000    -3.835000000     0.776000000
H    -6.421000000    -2.976000000    -0.370000000
O     0.016000000     0.670000000     4.445000000
H     0.627000000     1.401000000     4.541000000
H     0.557000000    -0.056000000     4.137000000
O     1.301000000    -2.235000000    -3.238000000
H     1.611000000    -1.630000000    -2.563000000
H     0.384000000    -2.394000000    -3.012000000
O    -6.303000000    -1.457000000     3.434000000
H    -6.228000000    -0.551000000     3.732000000
H    -5.403000000    -1.723000000     3.245000000
O     5.486000000    -1.172000000    -3.042000000
H     5.205000000    -1.904000000    -3.591000000
H     5.943000000    -1.584000000    -2.308000000
O    -1.379000000    -4.704000000    -1.394000000
H    -1.097000000    -3.828000000    -1.657000000
H    -2.051000000    -4.941000000    -2.033000000
O     6.106000000     1.075000000     0.139000000
H     5.869000000     1.036000000     1.066000000
H     6.480000000     0.214000000    -0.049000000
O     0.644000000     1.416000000    -6.137000000
H     1.412000000     1.170000000    -6.653000000
H     0.986000000     2.000000000    -5.461000000
O    -1.030000000     5.096000000    -3.573000000
H    -1.522000000     4.332000000    -3.873000000
H    -1.396000000     5.294000000    -2.711000000
O    -8.303000000     0.221000000    -1.241000000
H    -8.666000000    -0.483000000    -0.704000000
H    -7.383000000     0.270000000    -0.982000000
O    -1.225000000     3.526000000     3.536000000
H    -1.881000000     2.829000000     3.562000000
H    -0.589000000     3.281000000     4.208000000
O    -5.614000000     2.258000000     2.947000000
H    -5.622000000     3.124000000     2.539000000
H    -4.973000000     1.760000000     2.439000000
O     6.288000000    -3.530000000    -1.479000000
H     6.975000000    -3.768000000    -2.102000000
H     5.897000000    -4.365000000    -1.222000000
O     4.541000000     4.270000000    -3.456000000
H     5.380000000     3.967000000    -3.805000000
H     4.441000000     3.797000000    -2.630000000
O    -6.300000000     2.912000000    -2.236000000
H    -6.852000000     2.941000000    -3.017000000
H    -6.898000000     3.102000000    -1.513000000
O     3.213000000     4.296000000     0.954000000
H     2.449000000     3.742000000     1.116000000
H     3.093000000     5.045000000     1.538000000
O    -3.913000000     0.103000000    -5.270000000
H    -4.126000000     0.877000000    -4.749000000
H    -2.991000000    -0.069000000    -5.077000000
O     2.389000000     2.710000000    -4.350000000
H     2.876000000     3.512000000    -4.538000000
H     3.031000000     2.132000000    -3.937000000
O    -4.328000000     1.005000000    -2.741000000
H    -4.890000000     1.775000000    -2.821000000
H    -4.038000000     1.014000000    -1.829000000
O    -6.270000000     0.056000000     0.760000000
H    -5.358000000     0.292000000     0.593000000
H    -6.241000000    -0.877000000     0.971000000
O     6.546000000     2.576000000    -3.953000000
H     5.797000000     2.019000000    -3.744000000
H     7.277000000     1.966000000    -4.056000000
O    -1.220000000    -0.617000000    -5.908000000
H    -0.821000000     0.234000000    -6.090000000
H    -0.489000000    -1.234000000    -5.929000000
O     3.190000000    -2.578000000     3.892000000
H     3.350000000    -3.261000000     4.543000000
H     2.281000000    -2.712000000     3.623000000
O    -4.092000000     3.622000000     0.273000000
H    -3.811000000     4.038000000    -0.541000000
H    -4.029000000     2.683000000     0.097000000
O     3.762000000     0.232000000     4.792000000
H     3.505000000    -0.584000000     4.363000000
H     3.449000000     0.139000000     5.691000000
O     0.688000000     3.176000000     1.420000000
H     0.845000000     2.286000000     1.105000000
H    -0.117000000     3.111000000     1.933000000
O     4.856000000     3.149000000    -0.896000000
H     5.332000000     2.413000000    -0.511000000
H     4.256000000     3.432000000    -0.206000000
O     4.325000000     1.323000000    -3.042000000
H     4.611000000     1.741000000    -2.229000000
H     4.768000000     0.475000000    -3.044000000
O    -6.005000000     0.688000000     5.072000000
H    -6.452000000     1.308000000     5.648000000
H    -5.606000000     1.234000000     4.395000000
O    -8.429000000     1.747000000     1.101000000
H    -7.630000000     1.270000000     0.880000000
H    -9.083000000     1.420000000     0.484000000
O    -4.031000000     4.198000000    -2.699000000
H    -4.951000000     3.974000000    -2.562000000
H    -3.814000000     3.810000000    -3.547000000
