161
-3012.51074
C    -1.342000000     0.502000000    -0.535000000
H    -2.246000000     0.952000000    -0.936000000
C    -0.329000000    -0.104000000    -1.273000000
H    -0.308000000    -0.097000000    -2.360000000
C     0.854000000    -0.631000000    -0.682000000
C     2.077000000    -0.946000000    -1.521000000
H     1.823000000    -1.788000000    -2.168000000
H     2.419000000    -0.129000000    -2.160000000
H     2.872000000    -1.215000000    -0.822000000
C     1.064000000    -0.468000000     0.684000000
H     2.010000000    -0.634000000     1.195000000
C     0.007000000     0.088000000     1.442000000
H     0.115000000     0.222000000     2.516000000
C    -1.213000000     0.473000000     0.822000000
C    -2.302000000     1.082000000     1.689000000
O    -2.159000000     1.202000000     2.877000000
O    -3.349000000     1.497000000     1.229000000
O    -0.955000000    -3.149000000    -0.360000000
H    -1.470000000    -2.832000000    -1.103000000
H    -1.608000000    -3.450000000     0.273000000
O     4.395000000    -0.169000000     3.683000000
H     4.980000000     0.586000000     3.623000000
H     3.535000000     0.174000000     3.439000000
O    -0.534000000     2.387000000     7.655000000
H    -0.577000000     2.006000000     6.778000000
H    -1.113000000     3.148000000     7.614000000
O     1.723000000    -4.770000000    -0.919000000
H     1.795000000    -5.279000000    -0.111000000
H     1.011000000    -4.153000000    -0.750000000
O     3.649000000    -2.798000000     4.816000000
H     3.720000000    -2.540000000     5.735000000
H     3.667000000    -1.972000000     4.333000000
O    -2.064000000    -2.687000000     6.190000000
H    -2.031000000    -2.496000000     5.253000000
H    -2.847000000    -2.230000000     6.500000000
O    -1.185000000     0.809000000    -5.352000000
H    -1.833000000     0.670000000    -6.043000000
H    -1.686000000     1.172000000    -4.622000000
O     4.264000000    -4.086000000     0.944000000
H     4.275000000    -4.272000000     0.005000000
H     3.562000000    -4.637000000     1.288000000
O    -2.452000000    -2.727000000    -3.574000000
H    -2.805000000    -2.650000000    -2.688000000
H    -3.213000000    -2.928000000    -4.119000000
O     3.606000000    -1.275000000    -4.995000000
H     4.057000000    -0.450000000    -5.173000000
H     2.691000000    -1.101000000    -5.219000000
O    -2.970000000    -1.117000000     3.932000000
H    -2.848000000    -0.260000000     3.524000000
H    -3.820000000    -1.417000000     3.609000000
O     1.048000000     2.043000000    -3.896000000
H     0.334000000     1.757000000    -4.465000000
H     1.843000000     1.840000000    -4.389000000
O    -0.646000000     1.664000000     4.999000000
H    -0.431000000     2.535000000     4.668000000
H    -1.139000000     1.252000000     4.289000000
O    -5.269000000    -0.730000000    -3.318000000
H    -5.429000000    -1.673000000    -3.314000000
H    -5.019000000    -0.525000000    -2.417000000
O     1.065000000     2.632000000    -1.165000000
H     0.450000000     1.918000000    -0.994000000
H     1.337000000     2.501000000    -2.073000000
O     0.968000000    -4.006000000     5.345000000
H     1.782000000    -3.575000000     5.084000000
H     0.354000000    -3.807000000     4.639000000
O    -3.759000000    -2.537000000    -0.964000000
H    -4.501000000    -3.119000000    -1.125000000
H    -4.143000000    -1.770000000    -0.540000000
O    -5.242000000     0.005000000    -0.239000000
H    -4.646000000     0.577000000     0.245000000
H    -6.109000000     0.214000000     0.107000000
O     3.663000000     2.020000000     0.015000000
H     4.076000000     1.209000000    -0.283000000
H     3.003000000     2.211000000    -0.652000000
O     2.524000000    -5.635000000    -3.261000000
H     3.450000000    -5.394000000    -3.246000000
H     2.185000000    -5.335000000    -2.418000000
O     2.281000000     1.776000000     5.336000000
H     2.529000000     1.847000000     4.415000000
H     1.411000000     1.376000000     5.320000000
O    -5.869000000     2.297000000     5.061000000
H    -5.184000000     2.542000000     4.439000000
H    -6.471000000     1.753000000     4.552000000
O    -7.747000000     0.615000000     0.867000000
H    -8.332000000     1.267000000     0.481000000
H    -8.283000000    -0.174000000     0.941000000
O     4.626000000    -2.097000000    -2.721000000
H     4.246000000    -1.443000000    -2.134000000
H     4.231000000    -1.912000000    -3.573000000
O     4.346000000     1.999000000    -3.724000000
H     4.429000000     2.733000000    -3.115000000
H     5.112000000     1.453000000    -3.548000000
O    -3.266000000    -3.957000000     1.981000000
H    -3.780000000    -3.197000000     1.709000000
H    -3.468000000    -4.629000000     1.331000000
O    -7.199000000     4.404000000     0.897000000
H    -7.906000000     4.685000000     1.478000000
H    -6.866000000     3.600000000     1.296000000
O    -5.681000000     4.097000000    -1.173000000
H    -5.534000000     3.184000000    -1.421000000
H    -6.238000000     4.049000000    -0.397000000
O    -2.629000000     0.185000000     6.295000000
H    -2.792000000    -0.329000000     5.504000000
H    -1.905000000     0.766000000     6.058000000
O    -3.484000000     3.177000000     4.080000000
H    -3.194000000     2.324000000     3.756000000
H    -3.218000000     3.187000000     4.999000000
O    -2.697000000     3.105000000    -4.683000000
H    -2.605000000     3.375000000    -5.597000000
H    -3.141000000     3.841000000    -4.260000000
O     2.900000000    -3.992000000    -5.624000000
H     2.365000000    -4.194000000    -4.857000000
H     3.222000000    -3.105000000    -5.465000000
O    -4.547000000     2.181000000    -2.907000000
H    -4.787000000     1.255000000    -2.931000000
H    -3.828000000     2.259000000    -3.534000000
O    -2.730000000     4.129000000     1.606000000
H    -2.654000000     3.361000000     1.041000000
H    -2.784000000     3.771000000     2.492000000
O     5.308000000     0.185000000    -1.055000000
H     5.565000000    -0.406000000    -0.347000000
H     6.106000000     0.304000000    -1.570000000
O     6.489000000    -4.174000000    -2.687000000
H     5.753000000    -3.568000000    -2.766000000
H     7.110000000    -3.886000000    -3.356000000
O    -0.012000000    -3.532000000    -4.933000000
H    -0.768000000    -3.419000000    -4.357000000
H     0.240000000    -2.641000000    -5.175000000
O     1.241000000     4.024000000     1.568000000
H     1.004000000     4.936000000     1.397000000
H     1.289000000     3.622000000     0.701000000
O    -1.719000000     4.912000000     6.320000000
H    -1.141000000     4.647000000     5.605000000
H    -1.498000000     5.829000000     6.480000000
O    -0.904000000    -3.148000000     3.291000000
H    -1.799000000    -3.348000000     3.018000000
H    -0.457000000    -2.896000000     2.483000000
O    -3.959000000     0.184000000    -5.535000000
H    -4.565000000     0.894000000    -5.745000000
H    -4.424000000    -0.344000000    -4.886000000
O     2.836000000     1.960000000     2.472000000
H     3.116000000     1.753000000     1.580000000
H     2.154000000     2.621000000     2.362000000
O    -0.463000000    -6.369000000    -2.115000000
H    -0.573000000    -6.297000000    -1.167000000
H     0.080000000    -5.617000000    -2.351000000
O     0.852000000    -0.917000000    -5.880000000
H     0.571000000    -0.471000000    -6.679000000
H     0.465000000    -0.404000000    -5.171000000
O    -5.480000000    -1.806000000     2.577000000
H    -6.109000000    -1.141000000     2.856000000
H    -5.904000000    -2.241000000     1.837000000
O     0.143000000     4.133000000     4.225000000
H     0.239000000     4.306000000     3.288000000
H     0.801000000     4.691000000     4.639000000
O    -6.003000000     2.270000000     2.003000000
H    -5.077000000     2.027000000     1.985000000
H    -6.437000000     1.600000000     1.474000000
O    -3.990000000     6.085000000     0.131000000
H    -4.588000000     5.603000000    -0.439000000
H    -3.671000000     5.430000000     0.752000000
