161
-3025.74660
C    -1.147000000     0.770000000     0.417000000
H    -1.945000000     1.393000000     0.812000000
C    -0.093000000     0.381000000     1.234000000
H    -0.178000000     0.631000000     2.288000000
C     0.990000000    -0.287000000     0.702000000
C     2.106000000    -0.760000000     1.602000000
H     2.613000000    -1.609000000     1.139000000
H     2.834000000     0.023000000     1.822000000
H     1.714000000    -1.040000000     2.582000000
C     0.920000000    -0.701000000    -0.633000000
H     1.832000000    -1.130000000    -1.040000000
C    -0.172000000    -0.326000000    -1.468000000
H    -0.196000000    -0.631000000    -2.511000000
C    -1.189000000     0.512000000    -0.972000000
C    -2.379000000     0.838000000    -1.774000000
O    -2.700000000     0.114000000    -2.738000000
O    -3.005000000     1.817000000    -1.464000000
O    -1.708000000    -4.864000000    -4.126000000
H    -1.140000000    -4.622000000    -3.395000000
H    -2.424000000    -4.230000000    -4.093000000
O     4.894000000     0.932000000    -0.680000000
H     4.849000000     0.049000000    -1.046000000
H     3.983000000     1.225000000    -0.649000000
O    -1.156000000     3.067000000    -3.450000000
H    -1.805000000     2.363000000    -3.434000000
H    -1.095000000     3.358000000    -2.541000000
O     7.319000000     1.093000000     0.390000000
H     6.571000000     0.911000000    -0.179000000
H     8.010000000     1.382000000    -0.206000000
O    -3.444000000    -2.577000000    -6.273000000
H    -3.584000000    -3.294000000    -6.891000000
H    -2.532000000    -2.321000000    -6.406000000
O    -5.439000000    -4.018000000    -3.323000000
H    -5.126000000    -4.919000000    -3.246000000
H    -5.214000000    -3.614000000    -2.485000000
O     7.170000000    -0.080000000     4.926000000
H     6.341000000    -0.452000000     4.625000000
H     7.371000000     0.604000000     4.287000000
O    -4.239000000     4.186000000    -4.793000000
H    -4.513000000     3.810000000    -3.957000000
H    -4.126000000     3.430000000    -5.370000000
O    -3.192000000     4.144000000    -0.257000000
H    -2.437000000     4.061000000     0.326000000
H    -3.346000000     3.255000000    -0.577000000
O     1.480000000    -2.406000000    -4.424000000
H     1.138000000    -1.810000000    -5.091000000
H     2.130000000    -1.888000000    -3.950000000
O     3.822000000    -1.726000000     6.098000000
H     3.960000000    -2.429000000     5.464000000
H     3.153000000    -1.170000000     5.698000000
O    -2.797000000    -2.267000000    -3.641000000
H    -2.920000000    -1.363000000    -3.353000000
H    -3.133000000    -2.281000000    -4.537000000
O     2.027000000     4.164000000     2.208000000
H     2.048000000     4.989000000     1.723000000
H     1.528000000     3.569000000     1.649000000
O    -0.977000000     2.660000000     3.777000000
H    -1.227000000     1.820000000     4.161000000
H    -0.052000000     2.761000000     4.001000000
O    -2.295000000    -2.594000000    -0.804000000
H    -2.372000000    -2.469000000    -1.750000000
H    -1.565000000    -2.031000000    -0.547000000
O    -3.632000000     0.544000000     4.952000000
H    -2.841000000     0.588000000     5.490000000
H    -4.352000000     0.574000000     5.582000000
O     2.230000000     1.938000000    -1.356000000
H     2.399000000     2.861000000    -1.168000000
H     1.295000000     1.827000000    -1.186000000
O    -3.421000000    -0.787000000     2.629000000
H    -2.928000000    -1.607000000     2.655000000
H    -3.291000000    -0.402000000     3.496000000
O     0.119000000     3.915000000    -0.940000000
H     1.073000000     3.981000000    -0.920000000
H    -0.178000000     4.531000000    -0.270000000
O     0.317000000    -4.191000000    -2.420000000
H     0.768000000    -3.685000000    -3.096000000
H     0.950000000    -4.254000000    -1.705000000
O    -6.304000000     3.602000000     0.515000000
H    -5.861000000     4.233000000     1.083000000
H    -5.617000000     2.984000000     0.263000000
O    -5.022000000     2.277000000    -3.108000000
H    -4.369000000     1.890000000    -2.525000000
H    -5.063000000     1.678000000    -3.853000000
O    -5.979000000    -2.493000000    -5.271000000
H    -5.828000000    -3.007000000    -4.479000000
H    -5.102000000    -2.286000000    -5.594000000
O     5.251000000    -5.114000000    -0.622000000
H     5.399000000    -5.885000000    -1.170000000
H     4.697000000    -5.430000000     0.091000000
O     1.580000000     2.896000000     4.508000000
H     1.882000000     3.473000000     5.210000000
H     1.974000000     3.258000000     3.714000000
O     2.842000000     0.187000000    -3.845000000
H     2.617000000     0.763000000    -3.114000000
H     2.779000000     0.747000000    -4.619000000
O    -4.057000000     3.157000000     3.614000000
H    -3.172000000     3.322000000     3.940000000
H    -4.017000000     2.274000000     3.248000000
O    -0.212000000    -1.174000000     4.888000000
H    -0.230000000    -1.355000000     5.827000000
H     0.523000000    -0.571000000     4.773000000
O     6.086000000     3.651000000    -0.151000000
H     5.750000000     2.788000000     0.092000000
H     6.918000000     3.724000000     0.318000000
O    -5.512000000    -1.780000000    -1.324000000
H    -5.186000000    -2.539000000    -0.840000000
H    -4.746000000    -1.217000000    -1.432000000
O    -3.617000000     6.723000000    -1.284000000
H    -3.546000000     5.908000000    -0.787000000
H    -4.504000000     6.707000000    -1.645000000
O     4.919000000    -0.926000000     3.310000000
H     4.981000000    -1.206000000     2.397000000
H     4.612000000    -1.703000000     3.778000000
O     2.127000000     0.192000000     5.002000000
H     2.023000000     0.598000000     5.863000000
H     2.191000000     0.930000000     4.396000000
O    -0.463000000    -3.087000000     2.515000000
H    -0.533000000    -2.282000000     3.028000000
H     0.348000000    -3.495000000     2.818000000
O    -0.285000000     1.748000000    -6.302000000
H     0.100000000     0.902000000    -6.529000000
H    -1.172000000     1.538000000    -6.011000000
O    -7.401000000     0.725000000     0.793000000
H    -6.475000000     0.913000000     0.946000000
H    -7.494000000     0.743000000    -0.160000000
O     1.225000000    -4.425000000     0.329000000
H     0.653000000    -3.733000000     0.661000000
H     2.070000000    -3.995000000     0.196000000
O     5.818000000    -2.010000000     0.716000000
H     5.922000000    -2.762000000     0.133000000
H     6.393000000    -2.200000000     1.457000000
O    -4.726000000     0.746000000     0.853000000
H    -4.334000000     0.717000000    -0.020000000
H    -4.239000000     0.091000000     1.355000000
O    -1.098000000     4.504000000     1.731000000
H    -1.066000000     3.724000000     2.285000000
H    -1.445000000     5.190000000     2.302000000
O     4.410000000    -3.990000000     4.260000000
H     3.614000000    -4.456000000     4.005000000
H     5.124000000    -4.565000000     3.983000000
O     4.911000000    -1.274000000    -2.548000000
H     5.600000000    -1.788000000    -2.968000000
H     4.664000000    -0.623000000    -3.205000000
O    -2.393000000     0.196000000    -5.473000000
H    -2.543000000     0.265000000    -4.531000000
H    -3.251000000    -0.023000000    -5.837000000
O     5.769000000     1.671000000     2.675000000
H     6.124000000     1.413000000     1.824000000
H     5.342000000     0.881000000     3.006000000
O    -7.803000000     1.747000000    -2.231000000
H    -6.951000000     2.149000000    -2.406000000
H    -8.307000000     1.897000000    -3.031000000
O    -0.045000000    -1.071000000    -6.530000000
H    -0.861000000    -0.671000000    -6.226000000
H    -0.301000000    -1.584000000    -7.296000000
O     3.409000000    -3.394000000    -1.696000000
H     3.844000000    -2.605000000    -2.019000000
H     4.105000000    -4.051000000    -1.653000000
O    -5.451000000     0.461000000    -5.209000000
H    -6.111000000     0.756000000    -5.836000000
H    -5.914000000    -0.161000000    -4.648000000
