161
-3083.44333
C    -0.779000000     1.267000000     0.023000000
H    -1.304000000     2.216000000    -0.040000000
C    -1.373000000    -0.008000000    -0.088000000
H    -2.449000000    -0.051000000    -0.238000000
C    -0.547000000    -1.076000000    -0.202000000
C    -1.131000000    -2.473000000    -0.391000000
H    -0.736000000    -3.011000000    -1.255000000
H    -0.803000000    -3.017000000     0.497000000
H    -2.220000000    -2.533000000    -0.445000000
C     0.846000000    -0.978000000     0.142000000
H     1.529000000    -1.815000000     0.256000000
C     1.461000000     0.299000000     0.259000000
H     2.513000000     0.386000000     0.516000000
C     0.605000000     1.426000000     0.251000000
C     1.261000000     2.750000000     0.283000000
O     2.439000000     2.880000000     0.675000000
O     0.687000000     3.735000000    -0.243000000
O    -1.149000000    -2.732000000     4.658000000
H    -1.780000000    -3.147000000     4.070000000
H    -0.911000000    -3.420000000     5.279000000
O     3.862000000     5.363000000     0.804000000
H     3.170000000     4.827000000     1.191000000
H     4.674000000     4.915000000     1.042000000
O     5.233000000    -0.035000000     0.086000000
H     4.673000000     0.684000000     0.379000000
H     5.188000000     0.001000000    -0.869000000
O    -4.283000000    -0.536000000     3.890000000
H    -3.528000000    -0.631000000     3.309000000
H    -3.930000000    -0.686000000     4.767000000
O    -3.809000000     1.744000000    -3.544000000
H    -3.169000000     1.778000000    -4.255000000
H    -3.741000000     2.599000000    -3.119000000
O    -2.436000000    -3.887000000     2.389000000
H    -2.611000000    -3.652000000     1.478000000
H    -1.610000000    -4.369000000     2.358000000
O    -1.581000000    -2.255000000    -4.860000000
H    -1.362000000    -1.614000000    -4.184000000
H    -2.375000000    -1.910000000    -5.269000000
O     2.594000000    -2.188000000    -2.118000000
H     3.140000000    -1.439000000    -2.359000000
H     1.855000000    -1.803000000    -1.646000000
O     0.397000000     5.811000000     1.592000000
H    -0.546000000     5.979000000     1.589000000
H     0.560000000     5.346000000     0.771000000
O    -4.002000000     4.216000000     0.439000000
H    -3.930000000     3.271000000     0.572000000
H    -4.924000000     4.358000000     0.226000000
O     3.916000000    -4.297000000    -0.314000000
H     4.509000000    -4.891000000    -0.773000000
H     3.418000000    -3.870000000    -1.011000000
O    -0.804000000     3.913000000    -3.785000000
H     0.103000000     3.680000000    -3.587000000
H    -0.934000000     4.756000000    -3.352000000
O     0.746000000    -5.769000000    -1.635000000
H     0.630000000    -6.697000000    -1.838000000
H    -0.034000000    -5.346000000    -1.992000000
O    -6.031000000    -5.039000000     0.474000000
H    -5.577000000    -4.451000000    -0.130000000
H    -6.256000000    -4.486000000     1.222000000
O    -4.996000000     1.403000000     0.649000000
H    -4.794000000     0.995000000    -0.193000000
H    -5.000000000     0.677000000     1.273000000
O    -1.145000000    -4.448000000    -3.301000000
H    -1.589000000    -5.103000000    -3.840000000
H    -1.053000000    -3.688000000    -3.875000000
O     1.816000000    -5.101000000    -4.299000000
H     1.960000000    -4.157000000    -4.366000000
H     1.437000000    -5.224000000    -3.428000000
O     4.242000000     2.369000000    -1.584000000
H     4.081000000     3.007000000    -0.889000000
H     4.883000000     2.793000000    -2.155000000
O    -6.245000000    -1.015000000     1.859000000
H    -6.627000000    -1.889000000     1.940000000
H    -5.569000000    -0.986000000     2.536000000
O     3.803000000    -1.894000000     4.035000000
H     3.556000000    -0.998000000     3.804000000
H     4.572000000    -2.078000000     3.496000000
O    -3.688000000     4.233000000    -2.564000000
H    -4.529000000     4.405000000    -2.141000000
H    -3.035000000     4.524000000    -1.928000000
O     4.925000000    -0.744000000    -2.935000000
H     5.275000000    -1.624000000    -2.793000000
H     4.293000000    -0.850000000    -3.646000000
O    -4.229000000    -4.789000000     4.410000000
H    -4.058000000    -5.712000000     4.597000000
H    -3.626000000    -4.574000000     3.698000000
O    -0.610000000    -5.467000000     1.378000000
H    -1.068000000    -6.172000000     0.920000000
H     0.307000000    -5.572000000     1.122000000
O    -3.477000000     2.456000000     3.683000000
H    -3.219000000     1.537000000     3.616000000
H    -2.664000000     2.944000000     3.552000000
O    -1.698000000    -0.369000000     2.997000000
H    -1.222000000    -0.394000000     2.167000000
H    -1.463000000    -1.188000000     3.433000000
O     4.612000000     2.043000000     1.852000000
H     3.753000000     2.248000000     1.483000000
H     4.419000000     1.592000000     2.674000000
O    -2.288000000     5.885000000     1.670000000
H    -2.778000000     5.064000000     1.629000000
H    -2.377000000     6.171000000     2.579000000
O     2.575000000    -0.727000000    -4.549000000
H     1.758000000    -1.088000000    -4.893000000
H     2.300000000     0.003000000    -3.995000000
O     5.300000000    -2.683000000     1.420000000
H     5.285000000    -1.821000000     1.004000000
H     4.728000000    -3.222000000     0.873000000
O     4.064000000     7.736000000    -0.675000000
H     3.741000000     6.929000000    -0.274000000
H     4.805000000     7.455000000    -1.213000000
O     3.863000000     0.828000000     4.694000000
H     4.450000000     1.576000000     4.801000000
H     3.999000000     0.301000000     5.481000000
O    -4.968000000    -3.226000000    -1.317000000
H    -4.028000000    -3.346000000    -1.448000000
H    -5.217000000    -2.566000000    -1.964000000
O     1.665000000     4.193000000    -2.761000000
H     2.589000000     4.331000000    -2.553000000
H     1.231000000     4.152000000    -1.909000000
O     4.646000000     6.422000000     3.391000000
H     4.060000000     5.833000000     3.867000000
H     4.294000000     6.440000000     2.500000000
O    -0.732000000     3.025000000     3.207000000
H    -0.109000000     2.317000000     3.370000000
H    -0.186000000     3.800000000     3.078000000
O     6.099000000     3.895000000     0.709000000
H     5.743000000     3.442000000     1.474000000
H     6.892000000     4.324000000     1.031000000
O     2.157000000     1.713000000    -3.359000000
H     2.023000000     2.648000000    -3.204000000
H     3.037000000     1.539000000    -3.025000000
O     1.460000000     2.164000000     4.558000000
H     0.958000000     1.619000000     5.164000000
H     2.272000000     1.678000000     4.415000000
O    -4.851000000     0.195000000    -1.725000000
H    -4.571000000     0.826000000    -2.388000000
H    -5.703000000    -0.113000000    -2.033000000
O     0.231000000    -6.147000000     3.947000000
H     1.038000000    -6.662000000     3.949000000
H     0.191000000    -5.767000000     3.069000000
O    -1.288000000     5.147000000    -1.001000000
H    -1.833000000     5.160000000    -0.214000000
H    -0.545000000     4.590000000    -0.768000000
O    -1.477000000     1.640000000    -5.081000000
H    -1.403000000     1.803000000    -6.022000000
H    -1.202000000     2.461000000    -4.673000000
O    -0.852000000    -0.229000000    -3.255000000
H    -1.042000000     0.258000000    -2.453000000
H    -1.130000000     0.355000000    -3.961000000
O    -1.582000000     7.965000000    -1.061000000
H    -1.033000000     7.212000000    -1.283000000
H    -0.959000000     8.659000000    -0.844000000
O     2.134000000    -5.910000000     0.902000000
H     2.879000000    -5.312000000     0.842000000
H     1.678000000    -5.810000000     0.066000000
O     2.281000000     5.112000000     3.641000000
H     1.774000000     5.344000000     2.862000000
H     2.016000000     4.215000000     3.842000000
O     0.872000000    -2.508000000    -5.916000000
H     0.712000000    -3.122000000    -6.633000000
H    -0.001000000    -2.218000000    -5.650000000
