161
-3063.84103
C    -0.627000000     1.377000000     0.153000000
H    -1.197000000     2.296000000     0.258000000
C    -1.347000000     0.184000000    -0.103000000
H    -2.426000000     0.152000000    -0.236000000
C    -0.615000000    -1.025000000    -0.358000000
C    -1.347000000    -2.325000000    -0.502000000
H    -0.613000000    -2.974000000    -0.984000000
H    -1.706000000    -2.720000000     0.451000000
H    -2.206000000    -2.220000000    -1.168000000
C     0.814000000    -0.998000000    -0.278000000
H     1.344000000    -1.922000000    -0.496000000
C     1.473000000     0.162000000     0.118000000
H     2.545000000     0.145000000     0.300000000
C     0.768000000     1.338000000     0.346000000
C     1.485000000     2.546000000     0.700000000
O     2.597000000     2.638000000     0.241000000
O     1.059000000     3.351000000     1.557000000
O     0.669000000    -2.898000000     2.090000000
H     0.164000000    -3.705000000     2.189000000
H     0.043000000    -2.266000000     1.734000000
O     3.463000000     4.564000000     2.323000000
H     2.720000000     4.152000000     1.883000000
H     3.838000000     3.868000000     2.863000000
O    -1.049000000    -6.848000000     0.042000000
H    -1.629000000    -6.564000000    -0.665000000
H    -0.979000000    -7.796000000    -0.072000000
O    -4.676000000    -1.932000000     4.871000000
H    -4.271000000    -1.813000000     4.012000000
H    -4.080000000    -2.518000000     5.338000000
O    -4.540000000     3.449000000     0.354000000
H    -4.820000000     2.633000000    -0.059000000
H    -4.918000000     3.415000000     1.233000000
O    -4.382000000    -3.462000000    -1.750000000
H    -3.934000000    -2.739000000    -1.311000000
H    -5.272000000    -3.141000000    -1.895000000
O    -3.110000000    -4.569000000     2.757000000
H    -3.138000000    -3.669000000     3.082000000
H    -3.724000000    -4.578000000     2.024000000
O     4.435000000     4.802000000    -0.756000000
H     4.666000000     3.992000000    -1.212000000
H     4.015000000     4.509000000     0.053000000
O    -3.172000000    -4.624000000    -3.927000000
H    -3.135000000    -4.099000000    -3.127000000
H    -4.107000000    -4.739000000    -4.095000000
O     4.095000000     6.876000000    -2.859000000
H     3.949000000     6.094000000    -2.328000000
H     4.438000000     6.542000000    -3.688000000
O     1.783000000     5.737000000    -0.062000000
H     1.557000000     4.877000000     0.292000000
H     2.738000000     5.727000000    -0.123000000
O     0.169000000    -3.266000000    -4.305000000
H    -0.308000000    -3.813000000    -4.930000000
H    -0.396000000    -2.504000000    -4.175000000
O     4.114000000    -2.925000000    -0.315000000
H     4.738000000    -3.577000000    -0.634000000
H     3.315000000    -3.423000000    -0.142000000
O    -2.402000000     2.934000000    -3.143000000
H    -1.727000000     2.324000000    -2.845000000
H    -2.129000000     3.782000000    -2.794000000
O    -2.677000000    -6.578000000    -1.928000000
H    -3.509000000    -6.976000000    -2.183000000
H    -2.489000000    -5.948000000    -2.623000000
O     2.066000000    -4.225000000    -2.225000000
H     2.278000000    -4.737000000    -3.006000000
H     1.301000000    -3.708000000    -2.478000000
O    -0.141000000     1.333000000    -2.674000000
H     0.139000000     1.029000000    -1.811000000
H     0.675000000     1.473000000    -3.155000000
O    -0.672000000    -5.589000000     2.381000000
H    -1.532000000    -5.246000000     2.624000000
H    -0.821000000    -6.044000000     1.552000000
O    -4.107000000    -0.824000000    -4.606000000
H    -4.346000000     0.102000000    -4.637000000
H    -3.240000000    -0.833000000    -4.201000000
O     2.398000000     1.575000000     4.426000000
H     1.503000000     1.723000000     4.120000000
H     2.676000000     2.422000000     4.773000000
O    -5.077000000     0.043000000    -1.539000000
H    -5.486000000    -0.786000000    -1.790000000
H    -5.381000000     0.668000000    -2.197000000
O    -4.845000000    -5.251000000     0.636000000
H    -5.226000000    -6.128000000     0.680000000
H    -4.734000000    -5.086000000    -0.301000000
O     4.096000000    -1.890000000    -3.554000000
H     3.845000000    -2.256000000    -2.706000000
H     4.257000000    -2.655000000    -4.107000000
O    -0.645000000     5.333000000     2.404000000
H    -0.893000000     5.171000000     3.314000000
H     0.102000000     4.754000000     2.253000000
O     0.226000000     8.151000000    -1.180000000
H     0.668000000     8.860000000    -0.715000000
H     0.617000000     7.352000000    -0.826000000
O    -2.606000000    -1.679000000     3.056000000
H    -2.797000000    -0.812000000     2.696000000
H    -2.028000000    -1.507000000     3.799000000
O     5.206000000     2.302000000     1.035000000
H     4.341000000     2.532000000     0.695000000
H     5.238000000     1.347000000     0.980000000
O    -2.305000000     7.154000000    -1.134000000
H    -1.622000000     7.789000000    -0.919000000
H    -2.586000000     6.808000000    -0.286000000
O    -2.306000000     1.079000000     3.134000000
H    -2.947000000     1.453000000     3.737000000
H    -2.763000000     1.036000000     2.294000000
O    -4.342000000     0.421000000     1.461000000
H    -4.461000000     0.203000000     0.537000000
H    -5.108000000     0.046000000     1.896000000
O     5.106000000    -0.351000000    -0.321000000
H     4.788000000    -1.251000000    -0.246000000
H     5.998000000    -0.439000000    -0.656000000
O    -0.499000000     3.054000000     6.375000000
H    -0.910000000     3.918000000     6.370000000
H    -0.117000000     2.965000000     5.502000000
O     2.259000000     3.774000000    -2.490000000
H     2.520000000     2.942000000    -2.095000000
H     1.985000000     4.315000000    -1.749000000
O     2.180000000     7.223000000     2.473000000
H     2.225000000     6.360000000     2.061000000
H     3.071000000     7.567000000     2.406000000
O    -2.911000000     5.852000000     1.041000000
H    -3.413000000     5.038000000     1.002000000
H    -2.187000000     5.659000000     1.636000000
O     4.545000000     2.137000000    -1.990000000
H     5.214000000     1.958000000    -2.651000000
H     4.578000000     1.380000000    -1.405000000
O     6.800000000     4.303000000     2.343000000
H     7.294000000     4.013000000     1.576000000
H     5.981000000     3.810000000     2.301000000
O    -1.158000000    -0.807000000    -4.252000000
H    -1.290000000    -0.463000000    -5.135000000
H    -0.849000000    -0.056000000    -3.746000000
O     3.137000000    -2.350000000     3.059000000
H     2.989000000    -2.521000000     3.989000000
H     2.300000000    -2.555000000     2.642000000
O    -6.762000000    -2.122000000    -1.997000000
H    -7.237000000    -2.413000000    -2.775000000
H    -7.391000000    -1.579000000    -1.522000000
O    -0.054000000     2.191000000     3.681000000
H    -0.907000000     1.789000000     3.517000000
H     0.266000000     2.434000000     2.812000000
O    -3.126000000     4.675000000     3.874000000
H    -3.886000000     5.202000000     3.627000000
H    -3.466000000     3.783000000     3.947000000
O     5.724000000    -3.091000000     3.095000000
H     4.895000000    -2.615000000     3.062000000
H     5.513000000    -3.963000000     2.763000000
O    -4.727000000     1.801000000    -3.824000000
H    -3.986000000     2.261000000    -3.429000000
H    -5.104000000     2.435000000    -4.434000000
O    -0.935000000     5.065000000    -1.892000000
H    -1.557000000     5.792000000    -1.872000000
H    -0.268000000     5.302000000    -1.248000000
O     1.852000000    -6.322000000    -0.131000000
H     0.911000000    -6.358000000     0.041000000
H     1.948000000    -5.644000000    -0.800000000
O     4.802000000    -0.174000000     3.091000000
H     4.342000000    -0.999000000     2.939000000
H     4.197000000     0.499000000     2.778000000
O     1.926000000     1.975000000    -4.594000000
H     2.707000000     1.428000000    -4.519000000
H     2.137000000     2.765000000    -4.097000000
