161
-3020.41146
C     0.111000000     1.179000000     0.911000000
H    -0.050000000     1.937000000     1.674000000
C    -0.854000000     0.190000000     0.917000000
H    -1.715000000     0.275000000     1.575000000
C    -0.871000000    -0.930000000     0.032000000
C    -1.829000000    -2.071000000     0.177000000
H    -1.288000000    -3.020000000     0.154000000
H    -2.323000000    -2.009000000     1.149000000
H    -2.526000000    -2.142000000    -0.660000000
C     0.049000000    -0.875000000    -1.009000000
H     0.003000000    -1.584000000    -1.832000000
C     1.036000000     0.159000000    -1.064000000
H     1.782000000     0.239000000    -1.850000000
C     1.066000000     1.183000000    -0.121000000
C     2.153000000     2.303000000    -0.123000000
O     3.082000000     2.212000000    -0.921000000
O     2.174000000     2.959000000     0.989000000
O    -3.522000000     4.861000000     3.499000000
H    -4.379000000     4.829000000     3.925000000
H    -3.547000000     4.152000000     2.857000000
O     0.044000000    -3.257000000     3.324000000
H     0.607000000    -3.205000000     2.551000000
H     0.482000000    -2.710000000     3.976000000
O     3.289000000     1.585000000     2.874000000
H     3.151000000     0.680000000     2.596000000
H     2.985000000     2.112000000     2.135000000
O     1.242000000     3.790000000     3.591000000
H     1.464000000     3.073000000     4.185000000
H     1.614000000     3.529000000     2.749000000
O     3.461000000     5.797000000     1.361000000
H     3.149000000     4.972000000     1.735000000
H     3.496000000     5.634000000     0.419000000
O     2.054000000    -0.396000000    -5.267000000
H     2.622000000    -0.890000000    -5.858000000
H     2.656000000     0.123000000    -4.734000000
O     0.365000000    -6.865000000     1.907000000
H     1.023000000    -7.089000000     2.565000000
H     0.063000000    -5.992000000     2.157000000
O    -3.712000000    -4.820000000    -3.944000000
H    -4.171000000    -3.990000000    -3.810000000
H    -4.378000000    -5.490000000    -3.790000000
O     3.272000000     3.434000000    -6.219000000
H     3.990000000     4.053000000    -6.086000000
H     3.155000000     3.017000000    -5.365000000
O    -1.882000000     1.299000000     6.806000000
H    -2.187000000     1.920000000     7.467000000
H    -1.665000000     1.842000000     6.048000000
O    -2.920000000     2.727000000     1.819000000
H    -2.750000000     3.498000000     1.278000000
H    -3.538000000     2.206000000     1.306000000
O    -1.666000000    -6.930000000     0.101000000
H    -2.437000000    -6.585000000     0.552000000
H    -0.982000000    -6.940000000     0.770000000
O    -0.035000000     1.192000000    -6.437000000
H    -0.235000000     1.490000000    -5.550000000
H     0.753000000     0.657000000    -6.337000000
O    -5.364000000    -2.517000000    -3.681000000
H    -5.291000000    -1.844000000    -4.359000000
H    -6.256000000    -2.852000000    -3.772000000
O     3.468000000     2.223000000    -3.714000000
H     4.364000000     1.888000000    -3.750000000
H     3.271000000     2.282000000    -2.779000000
O     2.043000000    -0.769000000     1.948000000
H     1.460000000    -0.283000000     1.365000000
H     2.207000000    -1.594000000     1.491000000
O     2.793000000    -3.539000000    -2.466000000
H     2.468000000    -3.803000000    -1.605000000
H     2.092000000    -3.781000000    -3.071000000
O     6.432000000     3.783000000    -2.057000000
H     6.523000000     4.647000000    -1.655000000
H     6.449000000     3.172000000    -1.320000000
O    -2.722000000     5.284000000     0.508000000
H    -2.631000000     6.189000000     0.805000000
H    -2.189000000     5.237000000    -0.285000000
O     4.245000000    -1.246000000    -2.737000000
H     4.866000000    -1.474000000    -3.428000000
H     3.857000000    -2.082000000    -2.479000000
O     0.177000000    -2.239000000    -4.629000000
H     0.379000000    -2.548000000    -5.512000000
H     0.772000000    -1.503000000    -4.490000000
O    -3.436000000     0.040000000    -2.613000000
H    -2.899000000    -0.717000000    -2.847000000
H    -4.194000000    -0.334000000    -2.164000000
O    -5.186000000    -3.428000000     4.138000000
H    -5.903000000    -3.274000000     4.753000000
H    -5.284000000    -4.345000000     3.882000000
O    -5.562000000    -4.911000000     0.254000000
H    -4.963000000    -5.273000000    -0.399000000
H    -6.185000000    -5.617000000     0.425000000
O    -7.515000000    -0.544000000     1.405000000
H    -6.902000000    -1.231000000     1.664000000
H    -8.164000000    -0.524000000     2.109000000
O     5.612000000     4.661000000    -4.750000000
H     6.342000000     5.250000000    -4.562000000
H     5.575000000     4.076000000    -3.993000000
O    -0.998000000    -4.525000000    -3.622000000
H    -0.626000000    -3.670000000    -3.837000000
H    -1.698000000    -4.651000000    -4.263000000
O     4.709000000     0.043000000    -0.292000000
H     4.555000000    -0.655000000    -0.929000000
H     4.112000000     0.743000000    -0.555000000
O     2.409000000     7.126000000    -0.701000000
H     2.696000000     6.547000000    -1.407000000
H     2.064000000     6.534000000    -0.031000000
O    -1.023000000     2.128000000     4.214000000
H    -0.924000000     3.033000000     3.920000000
H    -1.793000000     1.806000000     3.746000000
O     3.669000000     4.726000000    -1.141000000
H     3.540000000     3.817000000    -0.872000000
H     3.931000000     4.669000000    -2.060000000
O     6.419000000     1.683000000    -4.036000000
H     6.837000000     0.826000000    -3.945000000
H     6.775000000     2.201000000    -3.314000000
O    -5.173000000    -1.292000000    -1.089000000
H    -5.366000000    -1.671000000    -0.231000000
H    -5.644000000    -1.849000000    -1.708000000
O    -2.952000000    -1.883000000     4.257000000
H    -2.231000000    -2.227000000     3.729000000
H    -3.626000000    -2.561000000     4.214000000
O    -0.132000000     2.731000000    -4.233000000
H    -0.931000000     3.158000000    -3.924000000
H     0.296000000     2.418000000    -3.436000000
O    -1.858000000    -6.993000000    -2.869000000
H    -2.217000000    -6.913000000    -1.986000000
H    -1.969000000    -6.123000000    -3.253000000
O    -1.760000000     2.097000000    -1.458000000
H    -2.545000000     1.685000000    -1.820000000
H    -1.202000000     1.363000000    -1.199000000
O     2.098000000    -3.346000000     1.233000000
H     2.954000000    -3.621000000     1.559000000
H     1.974000000    -3.849000000     0.428000000
O    -4.650000000     1.524000000     0.327000000
H    -5.239000000     2.079000000    -0.184000000
H    -4.752000000     0.652000000    -0.054000000
O     4.140000000     3.415000000     4.423000000
H     3.751000000     2.823000000     3.779000000
H     5.064000000     3.463000000     4.175000000
O    -4.944000000     0.014000000     3.322000000
H    -5.088000000     0.356000000     2.440000000
H    -4.117000000    -0.464000000     3.261000000
O     0.920000000     0.167000000     4.871000000
H     0.215000000     0.768000000     4.631000000
H     1.253000000    -0.158000000     4.034000000
O    -3.659000000    -6.660000000     2.414000000
H    -4.537000000    -6.279000000     2.389000000
H    -3.130000000    -6.012000000     2.878000000
O     6.926000000     1.576000000     0.161000000
H     6.039000000     1.229000000     0.259000000
H     7.306000000     1.513000000     1.037000000
O    -0.847000000     5.782000000     3.537000000
H    -0.284000000     5.032000000     3.347000000
H    -1.735000000     5.425000000     3.523000000
O     1.556000000    -5.184000000    -0.613000000
H     1.061000000    -5.483000000     0.150000000
H     1.346000000    -5.819000000    -1.298000000
O    -5.596000000    -2.529000000     1.435000000
H    -5.580000000    -3.409000000     1.059000000
H    -5.402000000    -2.662000000     2.363000000
O    -1.831000000    -4.884000000     4.164000000
H    -1.279000000    -4.200000000     3.783000000
H    -1.827000000    -4.698000000     5.103000000
