161
-3023.89947
C    -0.708000000     1.293000000     0.121000000
H    -1.138000000     2.245000000     0.424000000
C    -0.918000000     0.193000000     0.914000000
H    -1.566000000     0.280000000     1.783000000
C    -0.314000000    -1.062000000     0.640000000
C    -0.358000000    -2.103000000     1.665000000
H    -0.172000000    -1.684000000     2.656000000
H    -1.299000000    -2.653000000     1.604000000
H     0.447000000    -2.808000000     1.445000000
C     0.497000000    -1.183000000    -0.471000000
H     1.001000000    -2.096000000    -0.779000000
C     0.750000000    -0.079000000    -1.289000000
H     1.418000000    -0.167000000    -2.142000000
C     0.196000000     1.180000000    -0.960000000
C     0.568000000     2.508000000    -1.705000000
O     1.347000000     2.514000000    -2.586000000
O     0.257000000     3.627000000    -1.323000000
O    -2.481000000     5.885000000     0.737000000
H    -2.437000000     5.441000000    -0.110000000
H    -3.418000000     5.988000000     0.905000000
O    -2.498000000     2.798000000     3.035000000
H    -1.782000000     3.418000000     2.900000000
H    -2.122000000     2.114000000     3.588000000
O     1.400000000    -1.312000000     6.017000000
H     1.144000000    -0.756000000     6.753000000
H     2.303000000    -1.058000000     5.829000000
O    -0.999000000     5.029000000     2.816000000
H    -0.081000000     5.285000000     2.905000000
H    -1.280000000     5.430000000     1.993000000
O     1.059000000    -5.301000000     1.889000000
H     1.601000000    -4.606000000     1.517000000
H     1.145000000    -5.193000000     2.836000000
O    -2.121000000    -4.952000000    -3.655000000
H    -2.265000000    -5.288000000    -2.770000000
H    -1.176000000    -4.808000000    -3.706000000
O     0.114000000     3.971000000    -4.557000000
H     0.415000000     4.743000000    -4.078000000
H     0.405000000     3.231000000    -4.025000000
O     1.680000000     4.290000000    -6.969000000
H     2.548000000     3.900000000    -6.874000000
H     1.281000000     4.200000000    -6.103000000
O    -2.322000000     4.208000000    -1.792000000
H    -2.567000000     3.323000000    -2.062000000
H    -1.380000000     4.157000000    -1.632000000
O    -3.679000000    -3.107000000    -1.868000000
H    -3.244000000    -3.490000000    -2.631000000
H    -4.613000000    -3.168000000    -2.070000000
O    -0.922000000     7.792000000    -3.099000000
H    -1.535000000     7.082000000    -3.292000000
H    -0.057000000     7.389000000    -3.180000000
O    -1.731000000    -5.511000000    -0.763000000
H    -1.040000000    -6.031000000    -0.353000000
H    -1.889000000    -4.795000000    -0.148000000
O     3.152000000     2.154000000    -4.760000000
H     3.211000000     1.203000000    -4.852000000
H     2.478000000     2.289000000    -4.094000000
O     3.789000000    -3.018000000     4.293000000
H     3.690000000    -2.103000000     4.030000000
H     3.865000000    -3.498000000     3.468000000
O    -1.077000000    -1.733000000     5.153000000
H    -1.279000000    -2.560000000     4.715000000
H    -0.138000000    -1.781000000     5.332000000
O     4.147000000     3.251000000    -7.062000000
H     3.972000000     2.638000000    -7.776000000
H     3.910000000     2.770000000    -6.269000000
O     3.213000000    -3.464000000    -2.894000000
H     4.162000000    -3.397000000    -2.998000000
H     3.002000000    -4.350000000    -3.192000000
O     1.099000000    -1.586000000    -4.430000000
H     1.516000000    -2.194000000    -5.041000000
H     1.823000000    -1.231000000    -3.914000000
O    -5.278000000     3.342000000     3.732000000
H    -4.550000000     2.723000000     3.687000000
H    -6.050000000     2.795000000     3.878000000
O     4.161000000    -1.267000000     0.684000000
H     4.078000000    -0.328000000     0.851000000
H     4.718000000    -1.325000000    -0.092000000
O     0.217000000    -7.232000000     0.202000000
H     0.845000000    -7.907000000    -0.055000000
H     0.653000000    -6.757000000     0.909000000
O    -0.962000000    -0.065000000    -4.267000000
H    -1.340000000    -0.427000000    -3.466000000
H    -0.112000000    -0.498000000    -4.348000000
O     3.138000000     1.310000000     0.897000000
H     2.568000000     0.604000000     1.202000000
H     3.479000000     1.705000000     1.699000000
O    -5.681000000    -1.739000000     3.740000000
H    -6.501000000    -2.101000000     3.405000000
H    -5.054000000    -2.458000000     3.667000000
O    -5.004000000    -3.199000000     0.788000000
H    -4.487000000    -2.981000000     0.013000000
H    -5.243000000    -4.117000000     0.666000000
O     3.984000000    -0.311000000    -3.618000000
H     4.451000000    -1.145000000    -3.674000000
H     4.349000000     0.116000000    -2.843000000
O    -5.814000000     4.261000000     0.051000000
H    -5.030000000     3.797000000     0.346000000
H    -6.536000000     3.671000000     0.266000000
O    -4.347000000     5.583000000    -2.687000000
H    -4.881000000     4.828000000    -2.935000000
H    -3.703000000     5.229000000    -2.074000000
O    -2.157000000     5.593000000    -4.662000000
H    -1.591000000     4.822000000    -4.624000000
H    -3.005000000     5.284000000    -4.343000000
O     1.621000000    -4.658000000     4.563000000
H     2.280000000    -3.970000000     4.648000000
H     1.585000000    -5.064000000     5.429000000
O     1.270000000     4.594000000     0.935000000
H     0.970000000     4.236000000     0.099000000
H     1.802000000     3.896000000     1.317000000
O    -3.343000000     1.704000000    -2.001000000
H    -3.689000000     1.805000000    -1.114000000
H    -2.768000000     0.941000000    -1.948000000
O     1.654000000     7.170000000     1.577000000
H     0.737000000     7.334000000     1.358000000
H     1.846000000     6.318000000     1.185000000
O     4.536000000     1.390000000    -1.578000000
H     4.388000000     2.203000000    -2.061000000
H     4.149000000     1.550000000    -0.717000000
O     3.361000000     3.911000000    -1.657000000
H     2.999000000     4.405000000    -0.922000000
H     2.647000000     3.337000000    -1.936000000
O     5.342000000     3.596000000    -3.400000000
H     4.950000000     3.155000000    -4.154000000
H     4.609000000     3.747000000    -2.803000000
O    -3.991000000     2.546000000     0.557000000
H    -4.430000000     1.717000000     0.745000000
H    -3.380000000     2.664000000     1.285000000
O    -1.217000000     0.872000000     4.558000000
H    -0.797000000     1.338000000     5.281000000
H    -0.942000000    -0.038000000     4.668000000
O    -2.763000000     2.066000000    -4.870000000
H    -2.711000000     2.176000000    -3.921000000
H    -2.174000000     1.336000000    -5.059000000
O    -2.229000000    -0.743000000    -1.963000000
H    -1.588000000    -0.865000000    -1.263000000
H    -2.831000000    -1.481000000    -1.868000000
O     1.260000000     5.915000000    -2.831000000
H     1.183000000     5.245000000    -2.152000000
H     2.198000000     5.965000000    -3.012000000
O    -3.903000000    -3.835000000     4.714000000
H    -2.962000000    -3.981000000     4.620000000
H    -4.073000000    -3.963000000     5.648000000
O    -1.606000000    -6.127000000     2.700000000
H    -1.613000000    -5.526000000     3.446000000
H    -0.954000000    -5.760000000     2.103000000
O    -4.863000000    -0.336000000     0.787000000
H    -5.311000000    -1.175000000     0.679000000
H    -4.559000000    -0.342000000     1.695000000
O     3.247000000    -3.823000000     1.157000000
H     3.641000000    -4.378000000     0.485000000
H     3.600000000    -2.950000000     0.984000000
O    -4.519000000     0.465000000     3.828000000
H    -4.911000000    -0.396000000     3.682000000
H    -3.912000000     0.331000000     4.557000000
O    -0.271000000     1.498000000    -6.699000000
H     0.015000000     1.713000000    -5.812000000
H     0.385000000     0.880000000    -7.020000000
O    -1.250000000    -4.418000000     4.882000000
H    -1.486000000    -4.912000000     5.667000000
H    -0.299000000    -4.328000000     4.932000000
