161
-3016.21345
C     0.221000000     0.859000000     1.226000000
H     0.237000000     1.556000000     2.059000000
C    -0.852000000     0.008000000     1.076000000
H    -1.719000000     0.195000000     1.704000000
C    -0.880000000    -0.873000000    -0.040000000
C    -2.161000000    -1.603000000    -0.384000000
H    -2.100000000    -2.132000000    -1.337000000
H    -2.425000000    -2.269000000     0.440000000
H    -2.990000000    -0.909000000    -0.538000000
C     0.168000000    -0.865000000    -0.971000000
H     0.137000000    -1.476000000    -1.869000000
C     1.215000000     0.042000000    -0.878000000
H     1.894000000     0.099000000    -1.725000000
C     1.206000000     0.963000000     0.212000000
C     2.361000000     1.948000000     0.297000000
O     3.215000000     1.838000000    -0.554000000
O     2.478000000     2.623000000     1.280000000
O     1.936000000     2.414000000     3.789000000
H     2.352000000     3.183000000     4.179000000
H     2.060000000     2.528000000     2.847000000
O     4.443000000     0.845000000     2.765000000
H     3.924000000     1.564000000     2.405000000
H     4.812000000     1.198000000     3.575000000
O     4.705000000     4.247000000    -3.273000000
H     4.591000000     3.336000000    -3.542000000
H     4.808000000     4.205000000    -2.322000000
O    -3.738000000    -4.701000000     1.711000000
H    -3.833000000    -5.272000000     2.473000000
H    -4.485000000    -4.105000000     1.764000000
O     7.475000000     3.302000000    -1.415000000
H     7.690000000     2.372000000    -1.353000000
H     6.587000000     3.367000000    -1.062000000
O    -3.717000000    -5.281000000    -3.990000000
H    -4.001000000    -6.071000000    -4.449000000
H    -4.365000000    -5.162000000    -3.295000000
O    -0.946000000     3.666000000     2.508000000
H    -1.807000000     3.331000000     2.758000000
H    -0.507000000     3.844000000     3.339000000
O     0.188000000    -6.500000000    -2.202000000
H    -0.016000000    -6.019000000    -1.400000000
H     1.058000000    -6.867000000    -2.047000000
O    -5.472000000     0.348000000    -2.360000000
H    -4.600000000     0.564000000    -2.689000000
H    -5.698000000    -0.471000000    -2.802000000
O    -1.144000000    -4.315000000    -4.310000000
H    -1.801000000    -4.830000000    -3.842000000
H    -1.578000000    -3.482000000    -4.493000000
O     3.352000000     1.727000000    -3.332000000
H     4.081000000     1.314000000    -3.794000000
H     3.478000000     1.478000000    -2.416000000
O     0.977000000    -2.360000000     2.261000000
H     0.687000000    -1.506000000     1.940000000
H     0.208000000    -2.726000000     2.697000000
O     7.355000000     1.905000000     1.264000000
H     6.565000000     1.792000000     0.736000000
H     7.447000000     2.853000000     1.359000000
O    -3.080000000     2.144000000     5.300000000
H    -2.137000000     2.293000000     5.358000000
H    -3.333000000     2.534000000     4.462000000
O     4.801000000     5.178000000     1.466000000
H     5.650000000     4.914000000     1.822000000
H     4.185000000     5.030000000     2.184000000
O     4.987000000    -3.318000000    -2.873000000
H     5.222000000    -4.014000000    -3.486000000
H     4.246000000    -2.875000000    -3.286000000
O     4.211000000     7.086000000    -0.674000000
H     4.276000000     6.435000000     0.024000000
H     5.028000000     6.993000000    -1.164000000
O     7.786000000     0.583000000    -1.474000000
H     6.891000000     0.364000000    -1.216000000
H     8.141000000    -0.235000000    -1.823000000
O    -3.430000000     2.564000000     2.449000000
H    -4.015000000     1.835000000     2.241000000
H    -3.890000000     3.339000000     2.125000000
O    -3.365000000    -0.701000000     5.091000000
H    -3.490000000    -1.090000000     4.225000000
H    -3.470000000     0.240000000     4.949000000
O    -0.925000000     4.934000000    -0.081000000
H    -1.552000000     5.008000000     0.639000000
H    -0.195000000     4.437000000     0.287000000
O     1.994000000     5.262000000    -1.973000000
H     1.379000000     4.798000000    -2.542000000
H     2.858000000     5.007000000    -2.296000000
O     6.072000000     1.962000000    -4.139000000
H     6.453000000     1.108000000    -3.935000000
H     6.797000000     2.466000000    -4.507000000
O    -0.411000000    -0.746000000    -4.953000000
H    -0.395000000    -0.090000000    -5.649000000
H     0.170000000    -1.440000000    -5.264000000
O    -4.957000000    -6.526000000     0.097000000
H    -4.400000000    -5.882000000     0.535000000
H    -4.352000000    -7.042000000    -0.437000000
O    -2.653000000     0.403000000    -3.868000000
H    -2.188000000     1.020000000    -3.303000000
H    -1.967000000    -0.171000000    -4.209000000
O     5.548000000    -1.503000000     3.305000000
H     5.192000000    -0.665000000     3.010000000
H     6.406000000    -1.284000000     3.668000000
O    -1.589000000    -5.369000000     0.225000000
H    -1.314000000    -5.843000000     1.009000000
H    -2.430000000    -4.978000000     0.464000000
O    -6.451000000    -3.754000000     1.319000000
H    -7.118000000    -3.130000000     1.032000000
H    -6.912000000    -4.592000000     1.368000000
O    -5.946000000    -2.068000000    -4.077000000
H    -6.280000000    -2.293000000    -4.945000000
H    -5.279000000    -2.732000000    -3.898000000
O     0.735000000    -3.980000000     0.095000000
H     1.005000000    -3.442000000     0.839000000
H    -0.202000000    -4.123000000     0.231000000
O     4.379000000    -3.236000000    -0.236000000
H     4.167000000    -2.314000000    -0.086000000
H     4.662000000    -3.271000000    -1.149000000
O     2.017000000     5.141000000     0.804000000
H     1.905000000     5.110000000    -0.146000000
H     2.259000000     4.247000000     1.046000000
O    -0.260000000     2.131000000     5.427000000
H     0.144000000     2.705000000     6.078000000
H     0.429000000     1.983000000     4.779000000
O     5.059000000     3.532000000    -0.547000000
H     4.795000000     4.056000000     0.210000000
H     4.374000000     2.869000000    -0.630000000
O     0.406000000    -0.467000000     6.153000000
H     0.083000000     0.424000000     6.017000000
H     1.079000000    -0.583000000     5.482000000
O    -5.202000000     0.904000000     1.139000000
H    -4.996000000     0.082000000     1.582000000
H    -4.909000000     0.771000000     0.237000000
O    -1.519000000     1.932000000    -1.707000000
H    -1.149000000     1.131000000    -1.336000000
H    -0.760000000     2.428000000    -2.012000000
O     2.310000000     5.430000000     3.845000000
H     2.356000000     5.763000000     2.949000000
H     2.561000000     6.176000000     4.391000000
O     0.660000000     2.911000000    -3.302000000
H     0.820000000     2.714000000    -4.225000000
H     1.473000000     2.668000000    -2.860000000
O    -3.993000000     3.835000000    -0.680000000
H    -3.220000000     3.382000000    -1.018000000
H    -3.908000000     3.778000000     0.272000000
O     4.981000000     2.511000000     4.975000000
H     5.196000000     1.708000000     5.449000000
H     4.489000000     3.037000000     5.605000000
O    -4.830000000    -1.506000000     2.831000000
H    -5.527000000    -1.854000000     3.387000000
H    -4.933000000    -1.970000000     2.000000000
O     2.645000000    -0.830000000     4.658000000
H     2.937000000    -0.020000000     4.240000000
H     3.404000000    -1.410000000     4.614000000
O     4.646000000    -0.467000000     0.146000000
H     4.088000000     0.153000000    -0.322000000
H     4.620000000    -0.174000000     1.056000000
O    -1.375000000    -3.342000000     3.308000000
H    -1.462000000    -4.279000000     3.133000000
H    -2.175000000    -2.956000000     2.950000000
O     2.070000000    -4.035000000    -2.668000000
H     1.916000000    -3.894000000    -1.734000000
H     1.267000000    -3.730000000    -3.091000000
O     1.630000000    -2.469000000    -6.147000000
H     1.780000000    -3.217000000    -6.725000000
H     2.452000000    -1.979000000    -6.172000000
