161
-3067.16402
C    -0.778000000     1.196000000     0.138000000
H    -1.266000000     2.151000000     0.315000000
C     0.407000000     0.938000000     0.901000000
H     0.710000000     1.653000000     1.661000000
C     1.046000000    -0.252000000     0.654000000
C     2.349000000    -0.597000000     1.372000000
H     2.448000000     0.011000000     2.274000000
H     2.250000000    -1.609000000     1.771000000
H     3.256000000    -0.486000000     0.774000000
C     0.435000000    -1.176000000    -0.248000000
H     0.890000000    -2.143000000    -0.447000000
C    -0.723000000    -0.869000000    -1.003000000
H    -1.156000000    -1.654000000    -1.618000000
C    -1.287000000     0.392000000    -0.889000000
C    -2.547000000     0.725000000    -1.648000000
O    -2.906000000    -0.114000000    -2.415000000
O    -3.134000000     1.839000000    -1.586000000
O    -0.750000000    -6.162000000    -1.687000000
H    -0.854000000    -5.210000000    -1.691000000
H     0.130000000    -6.308000000    -2.035000000
O     6.533000000     0.505000000    -0.461000000
H     6.371000000    -0.378000000    -0.793000000
H     6.341000000     1.079000000    -1.204000000
O     0.830000000     3.532000000    -4.323000000
H     0.018000000     3.214000000    -3.929000000
H     0.948000000     4.408000000    -3.954000000
O     6.734000000     0.856000000     2.644000000
H     6.986000000     1.008000000     1.733000000
H     6.439000000    -0.054000000     2.661000000
O    -0.859000000     0.056000000    -4.256000000
H    -1.242000000     0.271000000    -5.106000000
H    -1.581000000     0.159000000    -3.635000000
O     5.129000000    -1.461000000     3.040000000
H     4.261000000    -1.859000000     3.101000000
H     5.734000000    -2.170000000     3.260000000
O    -3.925000000     4.098000000    -4.074000000
H    -3.017000000     3.897000000    -3.849000000
H    -4.217000000     4.692000000    -3.382000000
O    -2.532000000     4.832000000     2.473000000
H    -3.163000000     4.590000000     3.151000000
H    -2.695000000     4.212000000     1.762000000
O    -4.721000000    -1.989000000    -1.739000000
H    -4.052000000    -1.404000000    -2.093000000
H    -5.366000000    -1.402000000    -1.343000000
O     3.929000000     2.226000000     1.602000000
H     4.305000000     1.579000000     1.004000000
H     3.934000000     1.793000000     2.456000000
O     1.696000000     2.866000000     5.993000000
H     1.270000000     3.108000000     6.816000000
H     2.056000000     1.995000000     6.157000000
O    -1.299000000    -3.876000000    -4.167000000
H    -0.519000000    -4.430000000    -4.204000000
H    -1.399000000    -3.665000000    -3.239000000
O    -1.154000000    -2.876000000     4.601000000
H    -0.593000000    -2.342000000     5.164000000
H    -1.981000000    -2.939000000     5.077000000
O     2.422000000     2.882000000    -0.514000000
H     1.893000000     3.672000000    -0.407000000
H     2.803000000     2.730000000     0.351000000
O    -1.769000000    -1.422000000     2.245000000
H    -1.300000000    -1.360000000     1.413000000
H    -1.307000000    -2.105000000     2.731000000
O     1.312000000    -3.944000000    -2.292000000
H     1.362000000    -3.630000000    -3.194000000
H     1.896000000    -3.364000000    -1.803000000
O    -0.495000000     5.845000000    -1.499000000
H    -1.090000000     6.529000000    -1.193000000
H    -0.024000000     5.568000000    -0.714000000
O    -0.519000000     5.506000000     4.263000000
H     0.345000000     5.219000000     3.965000000
H    -1.112000000     5.252000000     3.556000000
O    -5.606000000     2.272000000    -2.397000000
H    -4.679000000     2.297000000    -2.160000000
H    -5.610000000     2.013000000    -3.319000000
O    -6.737000000    -2.089000000    -3.463000000
H    -6.484000000    -2.468000000    -4.305000000
H    -6.138000000    -2.487000000    -2.831000000
O     3.912000000    -3.330000000    -0.589000000
H     3.349000000    -3.437000000     0.178000000
H     4.398000000    -4.153000000    -0.647000000
O     2.856000000     0.296000000     5.972000000
H     3.395000000    -0.031000000     6.692000000
H     3.473000000     0.750000000     5.399000000
O    -5.888000000     0.962000000    -6.473000000
H    -5.287000000     1.460000000    -7.027000000
H    -5.362000000     0.710000000    -5.715000000
O     3.237000000     0.673000000    -2.105000000
H     2.736000000     0.987000000    -1.352000000
H     2.691000000     0.888000000    -2.862000000
O    -3.317000000     0.895000000     3.175000000
H    -2.622000000     0.375000000     2.772000000
H    -3.201000000     0.761000000     4.116000000
O     0.755000000    -1.647000000     5.868000000
H     1.426000000    -0.966000000     5.846000000
H     0.999000000    -2.199000000     6.611000000
O     4.707000000     1.662000000     4.396000000
H     5.086000000     2.005000000     5.205000000
H     5.437000000     1.229000000     3.953000000
O     4.184000000    -5.605000000     3.291000000
H     3.667000000    -4.820000000     3.471000000
H     3.539000000    -6.309000000     3.228000000
O    -6.325000000    -0.001000000    -1.106000000
H    -6.270000000     0.485000000    -0.283000000
H    -6.485000000     0.670000000    -1.770000000
O    -1.437000000     3.423000000    -2.865000000
H    -2.080000000     2.841000000    -2.459000000
H    -1.251000000     4.080000000    -2.193000000
O     4.211000000     5.575000000     1.458000000
H     5.097000000     5.248000000     1.615000000
H     3.638000000     4.874000000     1.767000000
O    -2.449000000    -3.891000000    -1.630000000
H    -3.045000000    -3.287000000    -2.074000000
H    -2.732000000    -3.876000000    -0.715000000
O     5.664000000     1.925000000    -2.543000000
H     4.826000000     1.464000000    -2.583000000
H     5.795000000     2.262000000    -3.429000000
O    -1.646000000    -2.568000000    -6.490000000
H    -1.602000000    -2.908000000    -5.596000000
H    -0.731000000    -2.499000000    -6.764000000
O     0.631000000    -4.754000000     3.599000000
H     0.408000000    -5.671000000     3.756000000
H    -0.061000000    -4.260000000     4.039000000
O     2.002000000    -4.321000000     1.187000000
H     1.329000000    -4.888000000     0.811000000
H     1.707000000    -4.162000000     2.084000000
O    -5.246000000     5.062000000     1.544000000
H    -5.073000000     4.152000000     1.303000000
H    -6.164000000     5.067000000     1.817000000
O    -2.977000000    -4.476000000     0.887000000
H    -2.393000000    -4.139000000     1.566000000
H    -3.775000000    -4.720000000     1.356000000
O    -5.696000000    -3.031000000     0.846000000
H    -5.469000000    -2.985000000    -0.083000000
H    -5.348000000    -2.221000000     1.218000000
O    -4.177000000     2.568000000     0.965000000
H    -3.913000000     2.059000000     0.199000000
H    -3.613000000     2.250000000     1.670000000
O     1.871000000     4.335000000     3.782000000
H     1.781000000     3.843000000     4.598000000
H     2.581000000     4.954000000     3.952000000
O     3.484000000    -4.618000000     6.192000000
H     3.437000000    -3.982000000     5.479000000
H     4.404000000    -4.610000000     6.459000000
O     5.141000000    -1.312000000    -2.092000000
H     4.470000000    -0.632000000    -2.144000000
H     4.698000000    -2.056000000    -1.685000000
O     1.764000000     0.987000000    -4.520000000
H     1.784000000     1.914000000    -4.759000000
H     0.879000000     0.701000000    -4.745000000
O     2.943000000    -2.582000000     4.231000000
H     1.999000000    -2.739000000     4.242000000
H     3.064000000    -1.809000000     4.782000000
O     1.187000000    -1.722000000    -3.823000000
H     0.514000000    -1.042000000    -3.840000000
H     1.935000000    -1.331000000    -4.273000000
O     0.917000000     5.107000000     1.035000000
H     0.856000000     6.042000000     1.232000000
H     1.052000000     4.691000000     1.887000000
O    -4.755000000     0.120000000    -4.240000000
H    -3.996000000     0.118000000    -3.657000000
H    -5.286000000    -0.620000000    -3.944000000
