161
-3043.86717
C    -0.078000000     0.613000000     1.382000000
H    -0.162000000     1.074000000     2.363000000
C    -1.169000000     0.065000000     0.749000000
H    -2.148000000     0.078000000     1.222000000
C    -0.917000000    -0.616000000    -0.454000000
C    -2.023000000    -1.295000000    -1.256000000
H    -2.026000000    -0.943000000    -2.289000000
H    -1.808000000    -2.366000000    -1.282000000
H    -2.966000000    -1.174000000    -0.719000000
C     0.264000000    -0.669000000    -1.101000000
H     0.383000000    -1.075000000    -2.102000000
C     1.309000000     0.131000000    -0.574000000
H     2.264000000     0.263000000    -1.075000000
C     1.128000000     0.777000000     0.725000000
C     2.329000000     1.548000000     1.308000000
O     3.268000000     1.681000000     0.610000000
O     2.359000000     1.915000000     2.491000000
O     6.108000000     4.661000000     4.369000000
H     6.992000000     4.994000000     4.215000000
H     6.021000000     3.924000000     3.765000000
O     5.465000000    -1.491000000     0.340000000
H     6.271000000    -1.814000000     0.742000000
H     5.280000000    -0.671000000     0.798000000
O    -6.563000000    -2.075000000     0.349000000
H    -7.322000000    -2.612000000     0.580000000
H    -6.936000000    -1.308000000    -0.086000000
O     1.638000000    -2.125000000    -5.383000000
H     2.027000000    -2.156000000    -6.257000000
H     2.295000000    -1.684000000    -4.844000000
O     5.565000000     1.366000000    -2.300000000
H     6.336000000     0.910000000    -1.963000000
H     4.924000000     0.673000000    -2.453000000
O    -4.263000000    -2.839000000    -2.604000000
H    -4.333000000    -1.940000000    -2.283000000
H    -4.119000000    -2.747000000    -3.546000000
O    -2.690000000     3.152000000    -5.224000000
H    -2.408000000     2.430000000    -4.663000000
H    -1.907000000     3.390000000    -5.720000000
O    -2.588000000     3.547000000     4.356000000
H    -1.837000000     3.433000000     4.939000000
H    -2.812000000     2.658000000     4.079000000
O    -2.970000000     0.570000000     4.206000000
H    -3.723000000     0.292000000     3.685000000
H    -3.339000000     0.788000000     5.062000000
O     0.231000000     5.426000000     0.847000000
H     0.231000000     5.582000000    -0.098000000
H     0.184000000     6.301000000     1.234000000
O    -4.852000000    -4.565000000    -0.567000000
H    -4.198000000    -4.902000000    -1.179000000
H    -4.959000000    -3.646000000    -0.812000000
O     2.202000000     3.022000000     7.439000000
H     1.633000000     3.710000000     7.094000000
H     1.838000000     2.210000000     7.087000000
O    -1.244000000    -1.685000000    -4.749000000
H    -0.666000000    -0.997000000    -4.420000000
H    -2.020000000    -1.218000000    -5.061000000
O    -3.400000000    -0.965000000    -6.253000000
H    -3.670000000    -1.882000000    -6.193000000
H    -3.829000000    -0.641000000    -7.045000000
O    -0.952000000     1.275000000    -3.823000000
H    -0.105000000     1.629000000    -4.093000000
H    -1.043000000     1.541000000    -2.908000000
O    -0.597000000    -0.433000000     4.658000000
H    -1.284000000     0.147000000     4.329000000
H    -0.594000000    -1.171000000     4.049000000
O    -3.035000000    -5.257000000    -3.012000000
H    -2.850000000    -5.335000000    -3.948000000
H    -3.460000000    -4.404000000    -2.921000000
O    -4.042000000     1.723000000    -1.587000000
H    -3.247000000     2.232000000    -1.740000000
H    -4.034000000     1.053000000    -2.271000000
O     4.874000000     5.755000000    -0.904000000
H     4.476000000     4.891000000    -0.797000000
H     4.231000000     6.362000000    -0.538000000
O     3.171000000    -0.325000000     7.140000000
H     2.582000000     0.236000000     6.636000000
H     3.366000000    -1.057000000     6.554000000
O    -1.527000000    -4.322000000     0.246000000
H    -1.560000000    -4.932000000    -0.491000000
H    -0.614000000    -4.344000000     0.534000000
O    -4.294000000    -0.183000000    -3.696000000
H    -5.095000000     0.086000000    -4.146000000
H    -3.748000000    -0.561000000    -4.385000000
O     3.815000000     3.210000000    -1.305000000
H     3.710000000     2.723000000    -0.488000000
H     4.450000000     2.701000000    -1.808000000
O    -1.772000000     3.344000000     1.477000000
H    -2.132000000     3.227000000     2.356000000
H    -1.260000000     4.151000000     1.532000000
O     1.917000000     4.826000000     2.829000000
H     1.116000000     4.963000000     2.324000000
H     2.033000000     3.876000000     2.840000000
O    -2.610000000    -2.535000000     5.006000000
H    -2.676000000    -1.582000000     4.946000000
H    -2.893000000    -2.848000000     4.147000000
O     1.241000000    -4.770000000    -0.940000000
H     0.924000000    -4.356000000    -1.742000000
H     2.138000000    -4.450000000    -0.844000000
O    -1.233000000     2.894000000    -1.251000000
H    -0.357000000     3.164000000    -1.527000000
H    -1.087000000     2.390000000    -0.450000000
O     1.139000000    -4.583000000     2.000000000
H     0.826000000    -5.402000000     2.386000000
H     1.240000000    -4.780000000     1.069000000
O    -3.236000000    -3.584000000     2.231000000
H    -3.942000000    -3.876000000     1.655000000
H    -2.456000000    -4.031000000     1.901000000
O     3.737000000     6.045000000     4.571000000
H     3.175000000     5.671000000     3.893000000
H     4.444000000     5.409000000     4.674000000
O    -4.836000000    -1.220000000     2.223000000
H    -5.460000000    -1.563000000     1.584000000
H    -4.110000000    -1.845000000     2.208000000
O     5.132000000     2.942000000     2.084000000
H     4.535000000     2.264000000     1.766000000
H     4.632000000     3.755000000     2.010000000
O    -7.233000000     0.219000000    -0.930000000
H    -7.906000000     0.825000000    -1.238000000
H    -6.408000000     0.680000000    -1.081000000
O     3.984000000    -3.676000000    -0.592000000
H     4.784000000    -3.925000000    -1.055000000
H     4.140000000    -2.773000000    -0.314000000
O     3.033000000    -1.510000000     4.334000000
H     3.313000000    -0.700000000     3.909000000
H     2.239000000    -1.765000000     3.864000000
O     4.812000000     0.247000000     2.657000000
H     4.043000000     0.776000000     2.443000000
H     5.551000000     0.749000000     2.314000000
O     1.256000000     3.320000000    -2.531000000
H     1.394000000     2.576000000    -3.117000000
H     1.999000000     3.293000000    -1.929000000
O     0.484000000    -3.743000000    -3.379000000
H     1.178000000    -3.295000000    -3.863000000
H    -0.325000000    -3.331000000    -3.684000000
O    -4.473000000     2.900000000     1.108000000
H    -3.583000000     3.028000000     0.780000000
H    -4.837000000     2.212000000     0.551000000
O     4.642000000     1.692000000     5.553000000
H     3.752000000     1.901000000     5.271000000
H     4.532000000     0.988000000     6.192000000
O    -5.828000000     0.725000000     3.897000000
H    -5.658000000     0.152000000     3.149000000
H    -6.231000000     1.505000000     3.514000000
O     0.444000000    -1.962000000     2.577000000
H     0.771000000    -2.861000000     2.586000000
H     0.221000000    -1.796000000     1.661000000
O    -0.876000000    -7.600000000    -1.842000000
H    -1.614000000    -7.068000000    -1.545000000
H    -0.361000000    -7.009000000    -2.392000000
O     1.855000000     1.187000000     4.929000000
H     0.965000000     0.873000000     4.768000000
H     2.205000000     1.370000000     4.058000000
O     1.841000000     1.610000000    -4.398000000
H     2.415000000     0.844000000    -4.381000000
H     2.091000000     2.079000000    -5.194000000
O     5.197000000    -1.532000000    -2.535000000
H     5.285000000    -1.594000000    -1.584000000
H     5.370000000    -2.419000000    -2.850000000
O     3.587000000    -0.646000000    -4.462000000
H     4.097000000    -0.641000000    -5.272000000
H     4.181000000    -1.016000000    -3.808000000
