161
-3047.89166
C    -0.203000000     1.475000000    -0.085000000
H    -0.476000000     2.527000000    -0.094000000
C    -0.954000000     0.543000000    -0.762000000
H    -1.786000000     0.875000000    -1.378000000
C    -0.621000000    -0.837000000    -0.624000000
C    -1.402000000    -1.894000000    -1.399000000
H    -2.254000000    -1.439000000    -1.908000000
H    -0.743000000    -2.314000000    -2.162000000
H    -1.912000000    -2.635000000    -0.780000000
C     0.504000000    -1.186000000     0.114000000
H     0.893000000    -2.195000000     0.227000000
C     1.222000000    -0.219000000     0.798000000
H     2.076000000    -0.587000000     1.361000000
C     0.783000000     1.073000000     0.820000000
C     1.384000000     2.009000000     1.734000000
O     2.408000000     1.600000000     2.339000000
O     1.082000000     3.196000000     1.795000000
O     4.230000000     2.003000000     0.382000000
H     4.318000000     2.929000000     0.156000000
H     3.584000000     1.990000000     1.089000000
O    -2.270000000     5.431000000     0.074000000
H    -1.861000000     4.840000000     0.707000000
H    -2.208000000     4.968000000    -0.761000000
O     5.457000000     2.867000000     5.127000000
H     5.091000000     3.426000000     4.441000000
H     4.697000000     2.575000000     5.629000000
O     1.528000000     4.698000000    -0.397000000
H     1.314000000     4.049000000    -1.067000000
H     1.295000000     4.275000000     0.430000000
O     4.387000000    -3.602000000    -0.979000000
H     4.397000000    -3.041000000    -0.203000000
H     3.559000000    -3.396000000    -1.413000000
O    -0.247000000    -3.585000000    -5.969000000
H    -0.881000000    -2.933000000    -6.268000000
H     0.600000000    -3.242000000    -6.254000000
O     4.471000000     4.695000000    -0.095000000
H     3.554000000     4.824000000    -0.338000000
H     4.760000000     5.554000000     0.214000000
O     3.407000000     1.546000000     6.345000000
H     2.669000000     1.370000000     5.761000000
H     3.535000000     0.726000000     6.822000000
O     1.628000000     0.345000000     4.544000000
H     0.793000000    -0.072000000     4.334000000
H     1.916000000     0.734000000     3.718000000
O    -5.254000000    -0.827000000    -1.623000000
H    -5.034000000    -1.429000000    -0.912000000
H    -5.775000000    -0.142000000    -1.204000000
O    -3.798000000    -2.548000000    -5.206000000
H    -2.911000000    -2.247000000    -5.407000000
H    -4.179000000    -1.841000000    -4.686000000
O     5.521000000     4.151000000     2.574000000
H     5.776000000     3.402000000     2.035000000
H     6.320000000     4.390000000     3.044000000
O    -3.361000000    -4.689000000     0.905000000
H    -2.527000000    -4.640000000     1.372000000
H    -3.203000000    -5.316000000     0.199000000
O     3.444000000     6.943000000     3.214000000
H     2.907000000     6.151000000     3.222000000
H     3.889000000     6.940000000     4.061000000
O     3.620000000    -2.903000000     3.947000000
H     3.776000000    -1.978000000     3.760000000
H     3.210000000    -2.907000000     4.813000000
O     0.942000000    -4.805000000     4.577000000
H     1.393000000    -5.206000000     5.319000000
H     1.646000000    -4.484000000     4.013000000
O    -4.564000000     2.981000000     0.725000000
H    -4.998000000     3.299000000     1.517000000
H    -4.180000000     2.143000000     0.983000000
O    -6.963000000    -2.320000000    -3.214000000
H    -6.336000000    -1.876000000    -2.643000000
H    -7.819000000    -2.086000000    -2.856000000
O    -2.048000000     1.378000000    -4.439000000
H    -2.272000000     2.272000000    -4.697000000
H    -2.885000000     0.913000000    -4.435000000
O    -0.548000000     7.195000000     3.183000000
H    -0.976000000     6.397000000     2.875000000
H     0.167000000     7.337000000     2.563000000
O    -3.641000000    -4.918000000    -3.536000000
H    -3.114000000    -5.577000000    -3.988000000
H    -3.504000000    -4.116000000    -4.039000000
O    -3.157000000     0.715000000     1.498000000
H    -2.484000000     0.101000000     1.202000000
H    -3.478000000     0.340000000     2.318000000
O    -2.305000000     3.532000000     4.454000000
H    -2.449000000     4.374000000     4.887000000
H    -1.669000000     3.082000000     5.011000000
O     1.818000000     4.570000000     5.723000000
H     2.286000000     4.222000000     4.964000000
H     2.477000000     4.602000000     6.416000000
O     0.070000000    -4.770000000    -3.425000000
H    -0.336000000    -5.637000000    -3.429000000
H    -0.471000000    -4.250000000    -4.019000000
O     0.409000000     2.677000000    -3.019000000
H     1.082000000     2.154000000    -2.584000000
H    -0.120000000     2.038000000    -3.497000000
O     4.450000000    -0.159000000     3.149000000
H     3.867000000     0.527000000     2.822000000
H     5.005000000     0.285000000     3.791000000
O    -1.015000000    -2.658000000     3.459000000
H    -0.797000000    -1.731000000     3.552000000
H    -1.712000000    -2.805000000     4.099000000
O     2.031000000    -5.659000000    -0.811000000
H     1.294000000    -5.375000000    -1.353000000
H     2.554000000    -6.214000000    -1.390000000
O     5.873000000    -0.043000000    -1.276000000
H     6.234000000    -0.366000000    -0.450000000
H     5.287000000     0.669000000    -1.019000000
O     2.581000000    -6.031000000     1.929000000
H     1.716000000    -5.761000000     2.235000000
H     2.547000000    -5.915000000     0.980000000
O     4.332000000    -2.395000000     1.470000000
H     4.506000000    -1.532000000     1.847000000
H     3.919000000    -2.887000000     2.180000000
O    -3.679000000    -6.477000000    -1.396000000
H    -3.394000000    -7.284000000    -1.824000000
H    -3.761000000    -5.844000000    -2.109000000
O    -6.387000000     2.501000000    -3.479000000
H    -6.040000000     2.505000000    -4.371000000
H    -5.615000000     2.592000000    -2.920000000
O     1.914000000    -3.189000000    -2.284000000
H     1.541000000    -2.480000000    -1.759000000
H     1.177000000    -3.776000000    -2.451000000
O    -4.872000000    -2.481000000     0.692000000
H    -4.499000000    -3.354000000     0.566000000
H    -4.679000000    -2.267000000     1.604000000
O    -4.146000000     2.068000000    -1.749000000
H    -4.364000000     2.276000000    -0.840000000
H    -3.201000000     1.917000000    -1.739000000
O     3.047000000     4.102000000     3.403000000
H     2.582000000     3.681000000     2.680000000
H     3.822000000     4.489000000     2.996000000
O    -0.658000000    -4.670000000     1.840000000
H    -0.626000000    -4.063000000     2.579000000
H    -0.539000000    -4.116000000     1.069000000
O     1.769000000     7.229000000     0.940000000
H     2.381000000     7.229000000     1.677000000
H     2.026000000     6.471000000     0.416000000
O    -1.174000000     4.400000000     2.171000000
H    -0.329000000     3.952000000     2.207000000
H    -1.673000000     4.032000000     2.900000000
O    -0.195000000     2.534000000     5.866000000
H     0.396000000     3.286000000     5.838000000
H    -0.308000000     2.352000000     6.799000000
O    -1.508000000     4.495000000    -2.359000000
H    -0.676000000     4.064000000    -2.555000000
H    -1.992000000     4.467000000    -3.185000000
O     0.341000000     0.042000000    -3.919000000
H    -0.518000000     0.225000000    -4.300000000
H     0.185000000     0.025000000    -2.975000000
O     3.623000000     2.276000000    -2.455000000
H     4.090000000     3.099000000    -2.601000000
H     4.057000000     1.886000000    -1.696000000
O    -1.088000000     0.145000000     4.478000000
H    -1.105000000     0.780000000     5.194000000
H    -1.467000000     0.613000000     3.734000000
O     3.739000000    -2.701000000    -4.553000000
H     4.355000000    -1.993000000    -4.366000000
H     3.208000000    -2.772000000    -3.760000000
O    -4.262000000    -0.153000000    -3.965000000
H    -4.586000000    -0.018000000    -3.074000000
H    -4.726000000     0.499000000    -4.490000000
