161
-3000.71159
C     0.362000000     1.420000000     0.113000000
H     0.404000000     2.504000000     0.177000000
C    -0.465000000     0.854000000    -0.878000000
H    -1.080000000     1.439000000    -1.557000000
C    -0.810000000    -0.487000000    -0.824000000
C    -1.929000000    -1.003000000    -1.697000000
H    -2.125000000    -2.058000000    -1.499000000
H    -2.847000000    -0.476000000    -1.428000000
H    -1.745000000    -0.764000000    -2.747000000
C    -0.074000000    -1.284000000     0.043000000
H    -0.377000000    -2.326000000     0.097000000
C     0.899000000    -0.761000000     0.845000000
H     1.322000000    -1.479000000     1.544000000
C     1.109000000     0.579000000     1.026000000
C     2.188000000     1.135000000     1.972000000
O     2.683000000     0.381000000     2.787000000
O     2.484000000     2.332000000     2.024000000
O     4.462000000     0.069000000    -1.510000000
H     4.222000000     0.379000000    -2.383000000
H     5.334000000    -0.309000000    -1.620000000
O    -2.898000000     1.040000000     1.244000000
H    -2.278000000     0.751000000     0.574000000
H    -3.483000000     1.642000000     0.784000000
O     4.560000000    -2.609000000     3.662000000
H     5.002000000    -2.101000000     2.981000000
H     5.260000000    -2.865000000     4.262000000
O     3.418000000     2.914000000    -0.375000000
H     3.233000000     2.642000000     0.524000000
H     3.715000000     2.115000000    -0.811000000
O     3.277000000     4.801000000     1.966000000
H     3.939000000     4.934000000     1.287000000
H     3.038000000     3.878000000     1.891000000
O     5.244000000    -3.411000000    -0.123000000
H     4.341000000    -3.720000000    -0.188000000
H     5.319000000    -2.744000000    -0.805000000
O     1.167000000    -4.068000000    -5.146000000
H     1.174000000    -3.237000000    -4.670000000
H     2.020000000    -4.104000000    -5.578000000
O     2.218000000     4.344000000    -2.268000000
H     2.247000000     3.644000000    -1.615000000
H     1.304000000     4.629000000    -2.272000000
O     4.037000000     0.371000000     6.250000000
H     4.691000000    -0.299000000     6.050000000
H     4.164000000     1.039000000     5.576000000
O    -2.807000000     3.752000000    -1.099000000
H    -2.644000000     3.864000000    -0.162000000
H    -3.621000000     4.231000000    -1.259000000
O     0.730000000     6.053000000     1.803000000
H     1.583000000     5.621000000     1.761000000
H     0.096000000     5.342000000     1.712000000
O     2.126000000    -4.257000000    -0.587000000
H     1.837000000    -4.824000000    -1.302000000
H     1.315000000    -3.918000000    -0.207000000
O    -1.573000000     4.432000000     1.613000000
H    -2.144000000     5.191000000     1.493000000
H    -2.108000000     3.804000000     2.098000000
O    -0.697000000    -4.510000000     3.393000000
H    -1.059000000    -5.393000000     3.462000000
H    -0.586000000    -4.370000000     2.453000000
O    -4.825000000    -4.523000000    -0.838000000
H    -4.399000000    -5.255000000    -0.390000000
H    -5.564000000    -4.295000000    -0.274000000
O     4.540000000     6.358000000     4.006000000
H     4.343000000     7.272000000     3.803000000
H     3.961000000     5.855000000     3.433000000
O     4.373000000     5.805000000    -0.797000000
H     3.861000000     5.023000000    -1.007000000
H     5.161000000     5.726000000    -1.334000000
O    -5.278000000    -2.416000000    -2.796000000
H    -4.991000000    -2.796000000    -1.965000000
H    -6.233000000    -2.459000000    -2.762000000
O     0.118000000    -3.127000000     5.495000000
H     0.613000000    -2.364000000     5.196000000
H    -0.080000000    -3.613000000     4.695000000
O     3.337000000     3.205000000    -4.471000000
H     2.963000000     3.488000000    -3.636000000
H     2.663000000     3.411000000    -5.118000000
O     6.451000000     2.376000000     0.880000000
H     6.840000000     1.577000000     0.525000000
H     6.362000000     2.956000000     0.124000000
O     3.913000000    -3.185000000    -2.831000000
H     3.015000000    -2.883000000    -2.967000000
H     4.441000000    -2.631000000    -3.405000000
O     7.404000000    -1.190000000     2.346000000
H     7.632000000    -1.815000000     1.658000000
H     6.566000000    -0.821000000     2.066000000
O     1.242000000     4.143000000     6.960000000
H     2.166000000     3.956000000     7.127000000
H     1.163000000     4.127000000     6.007000000
O    -2.738000000     0.329000000     3.830000000
H    -2.949000000     1.203000000     4.159000000
H    -2.855000000     0.394000000     2.883000000
O    -4.935000000     1.639000000    -1.147000000
H    -4.489000000     2.092000000    -1.863000000
H    -4.964000000     0.724000000    -1.425000000
O     0.085000000     0.305000000     5.380000000
H     0.949000000    -0.095000000     5.277000000
H    -0.506000000    -0.279000000     4.904000000
O    -3.605000000    -3.614000000    -4.733000000
H    -3.677000000    -3.466000000    -3.790000000
H    -3.882000000    -4.522000000    -4.854000000
O    -3.090000000    -1.059000000    -5.690000000
H    -3.116000000    -1.909000000    -5.250000000
H    -2.312000000    -1.101000000    -6.245000000
O     5.043000000    -0.234000000     1.528000000
H     4.299000000     0.160000000     1.983000000
H     5.074000000     0.216000000     0.684000000
O    -0.932000000    -4.816000000     0.163000000
H    -0.460000000    -5.345000000    -0.480000000
H    -1.605000000    -5.403000000     0.508000000
O     2.601000000    -6.618000000     0.669000000
H     2.463000000    -5.760000000     0.269000000
H     3.343000000    -6.989000000     0.192000000
O     4.938000000    -5.097000000     2.136000000
H     4.557000000    -4.343000000     2.586000000
H     5.248000000    -4.746000000     1.301000000
O     0.148000000     2.104000000    -4.505000000
H    -0.734000000     1.808000000    -4.731000000
H     0.010000000     2.899000000    -3.991000000
O     1.978000000    -1.275000000    -2.156000000
H     2.825000000    -1.001000000    -1.803000000
H     1.395000000    -1.287000000    -1.398000000
O    -3.663000000    -3.610000000     2.852000000
H    -2.758000000    -3.726000000     3.142000000
H    -3.685000000    -3.993000000     1.975000000
O    -5.258000000    -1.210000000     2.245000000
H    -4.914000000    -2.015000000     2.632000000
H    -4.733000000    -0.512000000     2.638000000
O     4.742000000     2.046000000     3.674000000
H     3.904000000     1.794000000     3.286000000
H     5.319000000     2.193000000     2.924000000
O     0.395000000    -6.468000000    -1.570000000
H    -0.306000000    -6.921000000    -2.039000000
H     0.861000000    -7.164000000    -1.107000000
O    -7.573000000    -1.720000000     0.618000000
H    -6.697000000    -1.479000000     0.920000000
H    -7.904000000    -2.313000000     1.292000000
O     7.708000000     1.910000000     3.991000000
H     7.926000000     0.987000000     3.865000000
H     6.768000000     1.911000000     4.175000000
O     0.886000000     3.300000000     3.975000000
H     0.615000000     2.391000000     4.103000000
H     1.552000000     3.257000000     3.289000000
O     2.168000000    -1.247000000     4.604000000
H     2.334000000    -0.493000000     4.038000000
H     2.891000000    -1.847000000     4.421000000
O    -5.797000000    -1.194000000    -5.662000000
H    -5.968000000    -1.634000000    -4.829000000
H    -4.862000000    -0.990000000    -5.637000000
O    -0.558000000    -1.180000000    -6.940000000
H    -0.136000000    -0.808000000    -6.165000000
H     0.035000000    -0.967000000    -7.661000000
O    -2.523000000     1.591000000    -4.784000000
H    -2.716000000     0.674000000    -4.980000000
H    -3.277000000     1.891000000    -4.276000000
O     1.065000000    -0.553000000    -4.711000000
H     1.183000000    -0.872000000    -3.816000000
H     0.912000000     0.386000000    -4.612000000
O    -0.567000000     4.384000000    -2.756000000
H    -1.334000000     4.117000000    -2.249000000
H    -0.825000000     5.210000000    -3.164000000
