161
-3037.30466
C    -0.805000000     0.407000000     1.217000000
H    -1.420000000     0.728000000     2.054000000
C    -0.514000000     1.272000000     0.129000000
H    -0.713000000     2.341000000     0.138000000
C     0.253000000     0.804000000    -0.936000000
C     0.632000000     1.634000000    -2.099000000
H     0.364000000     2.688000000    -2.003000000
H     1.699000000     1.470000000    -2.269000000
H     0.057000000     1.321000000    -2.972000000
C     0.671000000    -0.561000000    -0.922000000
H     1.282000000    -1.042000000    -1.681000000
C     0.339000000    -1.404000000     0.144000000
H     0.704000000    -2.426000000     0.080000000
C    -0.327000000    -0.965000000     1.206000000
C    -0.702000000    -1.853000000     2.320000000
O    -0.145000000    -2.915000000     2.345000000
O    -1.376000000    -1.500000000     3.248000000
O     3.529000000    -1.471000000     0.727000000
H     3.546000000    -2.287000000     0.227000000
H     3.710000000    -0.789000000     0.080000000
O     1.256000000    -6.904000000     4.651000000
H     0.996000000    -7.018000000     3.737000000
H     0.649000000    -6.247000000     4.993000000
O    -3.900000000    -2.140000000     1.256000000
H    -3.243000000    -2.224000000     1.947000000
H    -4.738000000    -2.222000000     1.711000000
O     0.546000000     3.941000000     1.732000000
H    -0.169000000     3.895000000     2.367000000
H     0.110000000     4.005000000     0.883000000
O    -3.733000000     3.034000000    -0.301000000
H    -4.669000000     2.895000000    -0.444000000
H    -3.389000000     2.163000000    -0.103000000
O     4.948000000     2.227000000    -4.236000000
H     4.092000000     2.510000000    -4.558000000
H     4.931000000     1.273000000    -4.320000000
O    -0.246000000     7.249000000    -4.577000000
H    -0.213000000     6.323000000    -4.818000000
H     0.671000000     7.497000000    -4.455000000
O     1.402000000     4.428000000    -4.546000000
H     0.540000000     4.121000000    -4.825000000
H     2.018000000     3.949000000    -5.101000000
O     1.092000000     0.765000000    -5.414000000
H     0.433000000     0.485000000    -6.050000000
H     0.790000000     1.625000000    -5.121000000
O     2.097000000     1.115000000     2.328000000
H     1.590000000     1.420000000     1.575000000
H     1.723000000     0.259000000     2.536000000
O    -2.904000000     5.284000000    -2.167000000
H    -3.311000000     4.780000000    -1.462000000
H    -3.541000000     5.968000000    -2.372000000
O     2.969000000    -1.254000000    -5.964000000
H     3.111000000    -1.460000000    -6.888000000
H     2.227000000    -0.649000000    -5.966000000
O    -6.365000000    -2.493000000     2.942000000
H    -5.740000000    -2.403000000     3.662000000
H    -6.839000000    -3.302000000     3.136000000
O     1.297000000     6.840000000     1.386000000
H     0.436000000     7.174000000     1.639000000
H     1.138000000     5.928000000     1.143000000
O     0.229000000    -7.584000000     2.327000000
H    -0.566000000    -8.095000000     2.170000000
H     0.125000000    -6.805000000     1.781000000
O    -3.990000000     0.163000000     0.040000000
H    -4.877000000     0.410000000     0.302000000
H    -3.928000000    -0.768000000     0.252000000
O    -4.041000000    -5.683000000     2.689000000
H    -3.481000000    -5.424000000     1.957000000
H    -4.855000000    -5.972000000     2.276000000
O    -2.726000000    -0.218000000    -2.241000000
H    -1.950000000    -0.723000000    -1.995000000
H    -3.218000000    -0.123000000    -1.425000000
O    -0.637000000    -4.522000000     4.601000000
H    -0.536000000    -3.974000000     3.822000000
H    -0.411000000    -3.945000000     5.331000000
O    -0.320000000     5.207000000    -0.839000000
H     0.415000000     5.018000000    -1.422000000
H    -1.097000000     5.033000000    -1.370000000
O     2.821000000     2.764000000    -0.117000000
H     2.395000000     3.506000000    -0.546000000
H     2.630000000     2.882000000     0.813000000
O    -3.208000000     3.868000000     5.344000000
H    -3.138000000     4.356000000     6.164000000
H    -2.780000000     3.031000000     5.525000000
O    -0.362000000    -3.986000000    -2.659000000
H     0.136000000    -4.530000000    -2.049000000
H     0.305000000    -3.552000000    -3.191000000
O     1.210000000    -2.527000000     5.812000000
H     1.533000000    -2.241000000     4.957000000
H     1.956000000    -2.413000000     6.400000000
O    -1.833000000    -6.774000000     5.714000000
H    -1.653000000    -6.058000000     5.105000000
H    -1.930000000    -6.347000000     6.565000000
O    -1.332000000     4.533000000     3.554000000
H    -0.592000000     4.329000000     4.126000000
H    -2.100000000     4.233000000     4.039000000
O    -2.070000000     1.379000000     5.272000000
H    -2.612000000     1.101000000     4.534000000
H    -1.596000000     0.589000000     5.533000000
O    -3.689000000    -2.315000000     4.151000000
H    -3.424000000    -2.776000000     4.946000000
H    -2.866000000    -2.074000000     3.727000000
O     3.609000000    -3.148000000    -1.446000000
H     3.476000000    -3.035000000    -2.387000000
H     2.759000000    -3.442000000    -1.118000000
O     2.157000000     4.950000000    -2.037000000
H     3.109000000     4.883000000    -1.976000000
H     1.957000000     4.708000000    -2.941000000
O     3.032000000     2.832000000    -6.039000000
H     2.488000000     2.317000000    -6.635000000
H     3.698000000     3.226000000    -6.603000000
O    -0.822000000    -0.804000000     5.914000000
H    -0.136000000    -1.426000000     6.159000000
H    -1.061000000    -1.052000000     5.020000000
O    -3.056000000    -3.259000000     6.802000000
H    -3.504000000    -2.694000000     7.432000000
H    -2.367000000    -3.686000000     7.311000000
O    -1.023000000     3.787000000    -6.058000000
H    -1.225000000     4.429000000    -6.739000000
H    -0.448000000     3.154000000    -6.488000000
O    -5.138000000     2.196000000    -2.923000000
H    -4.389000000     1.679000000    -2.627000000
H    -5.652000000     2.350000000    -2.131000000
O    -3.632000000     0.488000000    -4.877000000
H    -4.430000000     0.960000000    -4.639000000
H    -3.262000000     0.207000000    -4.040000000
O    -6.196000000     0.202000000     5.124000000
H    -5.342000000    -0.045000000     4.768000000
H    -6.434000000     0.997000000     4.647000000
O     4.382000000    -4.458000000     3.884000000
H     3.738000000    -3.785000000     3.665000000
H     4.654000000    -4.248000000     4.777000000
O     4.388000000    -0.324000000    -3.938000000
H     4.131000000    -0.468000000    -3.027000000
H     3.595000000    -0.507000000    -4.442000000
O     1.543000000    -5.289000000    -0.969000000
H     1.669000000    -6.214000000    -1.182000000
H     0.800000000    -5.282000000    -0.366000000
O    -2.769000000    -5.936000000     0.062000000
H    -2.720000000    -5.777000000    -0.880000000
H    -3.132000000    -6.818000000     0.139000000
O     2.468000000    -3.101000000     2.857000000
H     1.524000000    -3.105000000     2.695000000
H     2.825000000    -2.530000000     2.177000000
O     4.212000000     0.440000000    -1.371000000
H     3.865000000     1.246000000    -0.990000000
H     4.846000000     0.737000000    -2.023000000
O    -3.880000000     0.445000000     3.384000000
H    -3.852000000     0.383000000     2.429000000
H    -3.595000000    -0.417000000     3.688000000
O     0.519000000     3.556000000     5.470000000
H     1.450000000     3.720000000     5.620000000
H     0.495000000     2.718000000     5.008000000
O    -1.558000000     0.478000000    -6.617000000
H    -2.252000000     0.551000000    -5.962000000
H    -1.587000000    -0.438000000    -6.896000000
O    -0.330000000    -5.191000000     1.022000000
H    -0.223000000    -4.509000000     1.684000000
H    -1.252000000    -5.138000000     0.771000000
O     3.069000000    -3.393000000    -4.039000000
H     3.114000000    -2.612000000    -4.590000000
H     3.931000000    -3.799000000    -4.127000000
