161
-3046.06174
C     0.770000000     0.009000000     1.265000000
H     1.288000000     0.065000000     2.219000000
C     0.294000000     1.117000000     0.504000000
H     0.528000000     2.107000000     0.889000000
C    -0.383000000     0.955000000    -0.654000000
C    -0.892000000     2.159000000    -1.393000000
H    -0.162000000     2.842000000    -1.832000000
H    -1.601000000     1.852000000    -2.165000000
H    -1.408000000     2.774000000    -0.653000000
C    -0.640000000    -0.337000000    -1.183000000
H    -1.123000000    -0.399000000    -2.155000000
C    -0.150000000    -1.451000000    -0.468000000
H    -0.313000000    -2.464000000    -0.825000000
C     0.560000000    -1.259000000     0.785000000
C     1.048000000    -2.380000000     1.594000000
O     0.370000000    -3.349000000     1.544000000
O     1.808000000    -2.242000000     2.522000000
O    -4.097000000    -6.630000000     2.258000000
H    -3.700000000    -5.788000000     2.480000000
H    -3.567000000    -7.275000000     2.726000000
O    -6.445000000    -1.821000000    -2.411000000
H    -5.628000000    -1.776000000    -1.914000000
H    -6.182000000    -2.140000000    -3.274000000
O     3.837000000    -0.860000000     6.062000000
H     3.102000000    -0.450000000     5.605000000
H     3.766000000    -1.789000000     5.843000000
O     2.546000000     2.314000000     4.847000000
H     2.035000000     2.866000000     4.255000000
H     2.500000000     1.440000000     4.459000000
O    -3.510000000    -0.955000000    -3.687000000
H    -2.819000000    -1.475000000    -4.099000000
H    -3.595000000    -1.324000000    -2.807000000
O    -0.452000000     3.470000000     3.973000000
H    -0.560000000     4.015000000     3.194000000
H    -1.304000000     3.052000000     4.094000000
O    -4.611000000     1.942000000     0.585000000
H    -4.666000000     2.408000000    -0.249000000
H    -4.812000000     2.607000000     1.244000000
O    -2.098000000    -4.001000000     0.355000000
H    -2.651000000    -4.005000000     1.136000000
H    -1.254000000    -3.669000000     0.660000000
O     0.809000000     3.264000000     6.614000000
H     0.088000000     3.500000000     6.030000000
H     1.472000000     2.885000000     6.035000000
O     3.825000000    -3.828000000     0.248000000
H     4.435000000    -4.457000000     0.634000000
H     3.904000000    -3.049000000     0.797000000
O    -2.741000000    -0.173000000     1.190000000
H    -3.229000000     0.651000000     1.207000000
H    -2.117000000    -0.066000000     0.473000000
O     4.722000000     2.065000000    -1.687000000
H     3.798000000     1.848000000    -1.563000000
H     5.179000000     1.230000000    -1.593000000
O     3.049000000     5.991000000    -4.181000000
H     3.515000000     6.266000000    -4.971000000
H     2.872000000     5.061000000    -4.319000000
O    -1.633000000    -8.010000000     0.761000000
H    -1.089000000    -8.629000000     1.248000000
H    -1.156000000    -7.182000000     0.808000000
O     1.195000000     1.187000000    -4.405000000
H     0.389000000     0.714000000    -4.610000000
H     1.434000000     0.883000000    -3.529000000
O    -0.790000000    -2.806000000    -4.181000000
H    -0.149000000    -3.444000000    -4.495000000
H    -1.488000000    -3.336000000    -3.798000000
O    -2.993000000    -0.168000000     3.877000000
H    -2.678000000    -0.088000000     2.977000000
H    -3.638000000    -0.874000000     3.844000000
O     0.907000000    -0.831000000     7.651000000
H    -0.039000000    -0.892000000     7.519000000
H     1.219000000    -0.314000000     6.908000000
O    -4.263000000     3.342000000    -2.852000000
H    -3.444000000     3.313000000    -3.346000000
H    -4.873000000     2.815000000    -3.369000000
O     0.278000000    -6.305000000     4.444000000
H    -0.040000000    -6.409000000     5.341000000
H     1.171000000    -6.649000000     4.466000000
O     0.336000000     6.784000000    -5.635000000
H     0.163000000     5.868000000    -5.417000000
H     1.184000000     6.970000000    -5.232000000
O    -1.143000000    -1.203000000     5.589000000
H    -1.634000000    -0.647000000     4.984000000
H    -1.128000000    -2.062000000     5.166000000
O     0.172000000     4.990000000     1.458000000
H     0.931000000     4.448000000     1.243000000
H     0.499000000     5.615000000     2.105000000
O    -0.592000000    -5.734000000    -1.356000000
H    -0.664000000    -5.358000000    -0.479000000
H    -1.161000000    -5.187000000    -1.898000000
O    -3.021000000     5.085000000    -4.588000000
H    -2.760000000     5.984000000    -4.788000000
H    -2.980000000     4.630000000    -5.430000000
O     2.786000000    -3.444000000     4.678000000
H     2.289000000    -3.163000000     3.910000000
H     2.146000000    -3.902000000     5.223000000
O     2.477000000     0.295000000    -1.752000000
H     2.290000000    -0.634000000    -1.882000000
H     2.497000000     0.406000000    -0.802000000
O     1.705000000    -0.426000000     4.610000000
H     0.790000000    -0.616000000     4.816000000
H     1.930000000    -1.054000000     3.923000000
O     3.984000000     1.465000000     1.862000000
H     3.367000000     2.140000000     1.579000000
H     4.667000000     1.946000000     2.330000000
O    -0.429000000    -0.697000000    -5.805000000
H    -0.566000000    -1.115000000    -6.655000000
H    -0.471000000    -1.416000000    -5.174000000
O    -2.212000000     1.894000000    -4.709000000
H    -2.918000000     1.840000000    -5.354000000
H    -2.017000000     0.983000000    -4.492000000
O    -3.303000000    -1.958000000    -1.061000000
H    -3.157000000    -2.855000000    -0.759000000
H    -3.209000000    -1.422000000    -0.274000000
O     3.403000000    -2.445000000    -3.506000000
H     3.177000000    -2.216000000    -4.408000000
H     2.715000000    -3.052000000    -3.234000000
O     2.768000000    -7.587000000     1.795000000
H     2.780000000    -7.548000000     2.751000000
H     1.998000000    -7.078000000     1.543000000
O     4.227000000    -1.309000000     1.832000000
H     4.097000000    -0.368000000     1.953000000
H     3.436000000    -1.708000000     2.193000000
O     3.213000000     3.001000000    -5.032000000
H     2.548000000     2.314000000    -5.062000000
H     4.037000000     2.531000000    -4.904000000
O    -0.076000000     4.057000000    -5.238000000
H    -0.933000000     3.733000000    -4.962000000
H     0.534000000     3.363000000    -4.987000000
O    -5.404000000     1.175000000    -4.174000000
H    -4.842000000     0.404000000    -4.098000000
H    -5.105000000     1.612000000    -4.971000000
O     0.236000000    -6.086000000     1.815000000
H     0.362000000    -5.143000000     1.716000000
H     0.205000000    -6.227000000     2.761000000
O     5.220000000    -4.956000000     3.920000000
H     5.062000000    -5.304000000     3.042000000
H     4.621000000    -4.214000000     3.995000000
O     1.884000000    -3.945000000    -1.931000000
H     2.495000000    -4.210000000    -1.243000000
H     1.369000000    -4.732000000    -2.109000000
O     1.145000000    -4.157000000     6.719000000
H     0.890000000    -5.078000000     6.767000000
H     0.944000000    -3.807000000     7.587000000
O    -4.727000000     5.927000000    -1.440000000
H    -4.223000000     5.798000000    -0.637000000
H    -4.582000000     5.126000000    -1.945000000
O     3.065000000     3.889000000     1.445000000
H     2.978000000     4.621000000     0.835000000
H     3.604000000     4.234000000     2.158000000
O    -0.790000000    -3.737000000     3.986000000
H    -0.457000000    -4.587000000     4.271000000
H    -0.275000000    -3.526000000     3.207000000
O    -3.316000000    -4.089000000     2.862000000
H    -2.488000000    -4.097000000     3.343000000
H    -3.831000000    -3.400000000     3.282000000
O     6.875000000    -2.330000000     1.831000000
H     6.031000000    -1.946000000     2.072000000
H     7.148000000    -2.815000000     2.610000000
O    -2.789000000    -4.218000000    -3.049000000
H    -3.156000000    -4.604000000    -3.844000000
H    -3.493000000    -4.283000000    -2.403000000
