161
-3042.77430
C     0.582000000     0.723000000     1.154000000
H     1.220000000     1.221000000     1.879000000
C     0.215000000     1.350000000    -0.015000000
H     0.359000000     2.384000000    -0.317000000
C    -0.376000000     0.570000000    -0.986000000
C    -0.780000000     1.095000000    -2.363000000
H    -1.796000000     1.494000000    -2.354000000
H    -0.072000000     1.836000000    -2.742000000
H    -0.733000000     0.311000000    -3.122000000
C    -0.640000000    -0.750000000    -0.734000000
H    -0.996000000    -1.395000000    -1.533000000
C    -0.255000000    -1.400000000     0.407000000
H    -0.344000000    -2.482000000     0.461000000
C     0.400000000    -0.652000000     1.364000000
C     0.879000000    -1.283000000     2.648000000
O     1.078000000    -2.498000000     2.749000000
O     1.265000000    -0.516000000     3.505000000
O    -5.733000000    -2.824000000    -0.032000000
H    -6.371000000    -3.104000000     0.624000000
H    -4.937000000    -3.311000000     0.185000000
O     4.405000000     0.235000000     6.560000000
H     3.551000000     0.645000000     6.424000000
H     4.337000000    -0.613000000     6.123000000
O    -4.715000000     0.764000000    -5.344000000
H    -4.266000000     0.014000000    -5.734000000
H    -4.012000000     1.303000000    -4.983000000
O     0.627000000     4.234000000     3.502000000
H     0.176000000     4.037000000     2.681000000
H     1.312000000     4.856000000     3.256000000
O    -5.752000000    -0.579000000    -1.776000000
H    -5.772000000    -1.436000000    -1.352000000
H    -5.581000000     0.037000000    -1.064000000
O     1.426000000    -1.874000000    -5.468000000
H     2.096000000    -2.552000000    -5.551000000
H     0.669000000    -2.329000000    -5.100000000
O    -1.258000000     4.185000000     1.580000000
H    -1.712000000     4.178000000     0.738000000
H    -1.938000000     3.974000000     2.220000000
O    -3.013000000     4.187000000    -0.543000000
H    -3.534000000     3.496000000    -0.953000000
H    -3.605000000     4.938000000    -0.497000000
O    -3.027000000    -3.739000000     1.143000000
H    -2.977000000    -2.875000000     1.552000000
H    -2.894000000    -4.354000000     1.865000000
O     0.526000000     0.328000000    -6.876000000
H     0.744000000     0.995000000    -6.224000000
H     0.616000000    -0.502000000    -6.409000000
O    -0.275000000     2.996000000     5.823000000
H    -1.099000000     3.472000000     5.922000000
H     0.148000000     3.405000000     5.068000000
O     6.075000000    -1.776000000     1.214000000
H     5.712000000    -2.655000000     1.326000000
H     5.598000000    -1.239000000     1.847000000
O    -3.393000000     0.888000000     0.970000000
H    -2.551000000     0.989000000     0.526000000
H    -3.162000000     0.682000000     1.876000000
O    -4.802000000     5.369000000    -3.241000000
H    -4.572000000     4.508000000    -2.893000000
H    -5.743000000     5.315000000    -3.411000000
O    -0.028000000     6.461000000    -3.216000000
H    -0.913000000     6.206000000    -3.474000000
H     0.220000000     7.139000000    -3.845000000
O    -2.131000000    -5.400000000     3.108000000
H    -2.640000000    -6.177000000     3.337000000
H    -1.373000000    -5.428000000     3.692000000
O     0.631000000     4.606000000    -6.182000000
H     0.223000000     4.831000000    -7.018000000
H     0.445000000     5.354000000    -5.615000000
O     1.773000000    -5.833000000    -1.373000000
H     2.504000000    -6.251000000    -0.918000000
H     1.311000000    -5.349000000    -0.688000000
O    -3.028000000    -2.952000000    -4.805000000
H    -2.171000000    -3.112000000    -4.410000000
H    -2.865000000    -2.281000000    -5.468000000
O    -1.501000000     0.717000000     3.827000000
H    -1.841000000     1.611000000     3.839000000
H    -0.550000000     0.822000000     3.810000000
O    -0.694000000    -5.810000000     5.763000000
H    -0.488000000    -4.891000000     5.592000000
H    -0.165000000    -6.035000000     6.529000000
O     1.764000000    -0.176000000     8.547000000
H     2.293000000     0.492000000     8.983000000
H     1.650000000     0.153000000     7.656000000
O    -0.726000000    -0.429000000     6.706000000
H    -1.409000000     0.012000000     6.201000000
H     0.056000000    -0.364000000     6.158000000
O     0.261000000     6.700000000    -0.491000000
H     0.310000000     5.750000000    -0.385000000
H     0.008000000     6.827000000    -1.406000000
O    -0.501000000    -3.980000000    -3.977000000
H     0.105000000    -4.645000000    -4.303000000
H    -0.275000000    -3.881000000    -3.053000000
O     0.061000000    -7.794000000     0.924000000
H     0.360000000    -6.931000000     1.208000000
H     0.865000000    -8.300000000     0.805000000
O     3.340000000    -3.523000000     3.330000000
H     2.455000000    -3.178000000     3.210000000
H     3.226000000    -4.474000000     3.344000000
O     3.003000000    -0.894000000    -0.528000000
H     2.378000000    -0.602000000     0.136000000
H     2.670000000    -0.529000000    -1.348000000
O     1.890000000     1.046000000     5.732000000
H     1.326000000     1.820000000     5.736000000
H     1.645000000     0.575000000     4.936000000
O     3.479000000     1.856000000    -1.636000000
H     3.596000000     1.489000000    -0.760000000
H     3.657000000     1.125000000    -2.228000000
O     1.160000000     2.250000000    -5.026000000
H     0.801000000     2.983000000    -5.526000000
H     1.814000000     2.649000000    -4.452000000
O    -4.629000000     2.897000000    -2.418000000
H    -5.354000000     2.277000000    -2.503000000
H    -4.051000000     2.692000000    -3.153000000
O    -6.025000000     0.976000000     0.314000000
H    -6.307000000     1.829000000    -0.017000000
H    -5.113000000     1.109000000     0.571000000
O     2.554000000     6.404000000    -3.289000000
H     1.638000000     6.209000000    -3.092000000
H     2.973000000     5.546000000    -3.353000000
O     2.323000000     0.032000000    -3.306000000
H     1.869000000     0.731000000    -3.776000000
H     2.544000000    -0.608000000    -3.983000000
O     5.001000000    -2.040000000     4.962000000
H     5.786000000    -2.586000000     5.008000000
H     4.438000000    -2.483000000     4.328000000
O     3.643000000    -3.571000000     0.426000000
H     3.598000000    -2.637000000     0.220000000
H     3.345000000    -3.630000000     1.334000000
O     4.495000000    -0.253000000     2.827000000
H     4.860000000    -0.757000000     3.555000000
H     3.552000000    -0.247000000     2.989000000
O     0.739000000    -4.948000000     1.336000000
H     0.475000000    -4.236000000     1.918000000
H     1.534000000    -5.301000000     1.736000000
O     2.618000000    -5.948000000     3.413000000
H     3.358000000    -6.486000000     3.132000000
H     2.285000000    -6.390000000     4.195000000
O     1.794000000    -2.415000000     7.097000000
H     1.380000000    -1.925000000     7.808000000
H     2.421000000    -2.990000000     7.536000000
O     3.819000000     4.042000000    -3.686000000
H     4.723000000     4.006000000    -3.997000000
H     3.846000000     3.629000000    -2.823000000
O    -2.316000000    -0.485000000    -6.089000000
H    -2.561000000    -0.714000000    -6.986000000
H    -1.526000000     0.048000000    -6.186000000
O    -2.993000000     3.000000000    -4.570000000
H    -2.056000000     2.917000000    -4.392000000
H    -3.037000000     3.468000000    -5.404000000
O    -0.027000000    -3.277000000     5.127000000
H     0.540000000    -2.785000000     5.721000000
H     0.268000000    -3.025000000     4.251000000
O    -3.119000000    -1.393000000     3.038000000
H    -3.310000000    -1.862000000     3.850000000
H    -2.481000000    -0.725000000     3.291000000
O    -1.102000000    -4.724000000    -0.772000000
H    -0.573000000    -4.753000000     0.025000000
H    -1.923000000    -4.313000000    -0.500000000
O    -3.242000000    -2.946000000     5.866000000
H    -3.592000000    -3.454000000     6.597000000
H    -2.390000000    -3.343000000     5.685000000
