161
-3097.80688
C     0.959000000    -0.506000000     0.934000000
H     1.671000000    -0.871000000     1.669000000
C     0.945000000     0.830000000     0.492000000
H     1.679000000     1.548000000     0.850000000
C    -0.035000000     1.197000000    -0.444000000
C    -0.064000000     2.560000000    -1.061000000
H     0.687000000     2.724000000    -1.836000000
H    -0.984000000     2.688000000    -1.636000000
H     0.026000000     3.364000000    -0.327000000
C    -0.932000000     0.165000000    -0.824000000
H    -1.650000000     0.360000000    -1.616000000
C    -0.940000000    -1.128000000    -0.303000000
H    -1.685000000    -1.836000000    -0.656000000
C     0.057000000    -1.491000000     0.611000000
C     0.105000000    -2.845000000     1.177000000
O    -0.799000000    -3.658000000     0.911000000
O     0.955000000    -3.109000000     2.055000000
O     1.650000000     3.379000000     4.476000000
H     0.708000000     3.225000000     4.413000000
H     1.833000000     4.029000000     3.798000000
O    -1.736000000    -3.729000000     5.396000000
H    -2.432000000    -3.871000000     6.037000000
H    -1.696000000    -4.547000000     4.901000000
O     6.738000000     3.296000000     1.611000000
H     7.225000000     3.170000000     2.426000000
H     6.020000000     2.665000000     1.661000000
O    -2.031000000     5.083000000    -2.665000000
H    -1.999000000     5.792000000    -2.022000000
H    -2.762000000     4.534000000    -2.382000000
O     4.846000000    -1.875000000     3.523000000
H     4.926000000    -0.929000000     3.642000000
H     5.749000000    -2.186000000     3.455000000
O    -4.447000000     4.067000000    -4.761000000
H    -4.695000000     4.549000000    -3.972000000
H    -4.213000000     3.195000000    -4.445000000
O    -0.979000000     3.153000000     3.608000000
H    -0.735000000     2.766000000     2.767000000
H    -1.931000000     3.064000000     3.645000000
O    -3.662000000     4.097000000     3.198000000
H    -3.735000000     4.874000000     2.644000000
H    -3.514000000     3.378000000     2.584000000
O    -3.404000000    -3.542000000     0.251000000
H    -3.959000000    -4.071000000     0.824000000
H    -2.512000000    -3.720000000     0.549000000
O    -2.570000000     1.647000000     1.636000000
H    -3.481000000     1.417000000     1.454000000
H    -2.080000000     1.293000000     0.894000000
O    -4.505000000    -2.456000000    -2.212000000
H    -5.363000000    -2.878000000    -2.257000000
H    -4.052000000    -2.910000000    -1.501000000
O     1.560000000     0.523000000    -5.573000000
H     0.959000000    -0.069000000    -5.121000000
H     2.396000000     0.056000000    -5.581000000
O     2.619000000     4.949000000     0.133000000
H     2.070000000     4.888000000    -0.649000000
H     3.487000000     4.672000000    -0.162000000
O    -0.079000000     7.371000000    -0.595000000
H     0.509000000     6.926000000    -1.205000000
H    -0.748000000     7.767000000    -1.153000000
O    -1.866000000    -3.329000000    -4.285000000
H    -1.803000000    -3.917000000    -3.532000000
H    -1.690000000    -3.889000000    -5.041000000
O     2.626000000    -5.070000000    -0.799000000
H     2.694000000    -5.805000000    -1.407000000
H     3.148000000    -5.336000000    -0.041000000
O     2.610000000     3.002000000    -4.760000000
H     2.404000000     2.124000000    -5.080000000
H     1.759000000     3.392000000    -4.562000000
O     0.055000000    -5.948000000    -0.214000000
H     0.733000000    -5.649000000    -0.820000000
H    -0.220000000    -5.156000000     0.247000000
O     1.461000000     5.516000000    -2.167000000
H     0.954000000     4.845000000    -2.624000000
H     2.057000000     5.860000000    -2.832000000
O     2.899000000     7.655000000    -0.060000000
H     3.032000000     6.711000000     0.026000000
H     1.986000000     7.792000000     0.193000000
O    -1.513000000    -7.965000000     0.524000000
H    -0.944000000    -7.218000000     0.337000000
H    -1.639000000    -8.389000000    -0.325000000
O    -0.122000000     4.013000000    -4.277000000
H    -0.725000000     4.294000000    -3.589000000
H    -0.672000000     3.920000000    -5.055000000
O    -1.246000000    -5.441000000     3.101000000
H    -0.501000000    -6.029000000     2.974000000
H    -1.044000000    -4.678000000     2.560000000
O     5.563000000    -2.702000000    -0.211000000
H     5.293000000    -2.371000000    -1.068000000
H     4.745000000    -2.803000000     0.275000000
O     4.668000000     1.668000000     1.219000000
H     4.054000000     2.117000000     0.638000000
H     4.110000000     1.165000000     1.813000000
O     3.897000000    -0.389000000    -0.987000000
H     3.498000000    -0.836000000    -0.240000000
H     3.493000000    -0.797000000    -1.753000000
O    -2.384000000     0.296000000     3.998000000
H    -2.452000000     0.649000000     3.111000000
H    -2.549000000    -0.642000000     3.896000000
O     5.125000000     4.314000000    -0.676000000
H     6.026000000     4.004000000    -0.594000000
H     4.705000000     3.679000000    -1.256000000
O    -2.416000000    -5.307000000    -2.176000000
H    -3.026000000    -4.947000000    -1.533000000
H    -2.219000000    -6.187000000    -1.853000000
O     3.350000000    -3.604000000     5.138000000
H     3.884000000    -4.080000000     5.774000000
H     3.940000000    -2.944000000     4.776000000
O     0.111000000    -1.578000000    -3.997000000
H    -0.741000000    -2.007000000    -3.918000000
H     0.642000000    -1.968000000    -3.303000000
O     2.653000000     0.829000000     5.425000000
H     2.145000000     1.629000000     5.288000000
H     2.188000000     0.162000000     4.920000000
O     3.444000000    -2.730000000     1.467000000
H     3.771000000    -2.353000000     2.283000000
H     2.601000000    -3.119000000     1.703000000
O     3.373000000     2.687000000    -2.289000000
H     3.127000000     2.848000000    -3.200000000
H     3.135000000     1.773000000    -2.135000000
O    -3.331000000     1.531000000    -4.235000000
H    -2.777000000     1.538000000    -5.016000000
H    -3.620000000     0.622000000    -4.154000000
O    -1.444000000     6.634000000    -5.053000000
H    -1.969000000     6.123000000    -5.669000000
H    -1.741000000     6.346000000    -4.190000000
O     2.638000000    -2.664000000    -2.411000000
H     2.509000000    -3.439000000    -1.864000000
H     2.996000000    -3.007000000    -3.230000000
O    -4.420000000     0.480000000    -0.403000000
H    -4.418000000    -0.449000000    -0.637000000
H    -5.097000000     0.555000000     0.270000000
O     5.252000000     0.626000000     4.663000000
H     5.779000000     0.973000000     5.382000000
H     4.368000000     0.952000000     4.834000000
O     3.447000000    -6.574000000     1.504000000
H     2.695000000    -7.116000000     1.266000000
H     3.173000000    -6.120000000     2.301000000
O    -3.902000000     2.875000000    -1.888000000
H    -3.656000000     2.205000000    -2.525000000
H    -4.177000000     2.381000000    -1.116000000
O     1.587000000    -1.185000000     4.154000000
H     1.859000000    -1.932000000     4.687000000
H     1.057000000    -1.569000000     3.456000000
O    -5.203000000    -4.805000000     1.808000000
H    -5.707000000    -4.040000000     1.531000000
H    -4.859000000    -4.567000000     2.669000000
O    -2.739000000    -2.370000000     3.277000000
H    -2.187000000    -2.863000000     3.884000000
H    -2.313000000    -2.475000000     2.426000000
O    -3.554000000    -1.292000000    -4.383000000
H    -3.980000000    -1.695000000    -3.627000000
H    -2.789000000    -1.843000000    -4.549000000
O     2.825000000     5.291000000     2.740000000
H     2.756000000     5.076000000     1.810000000
H     3.764000000     5.272000000     2.922000000
O     1.773000000    -4.998000000     3.473000000
H     1.377000000    -4.374000000     2.865000000
H     2.354000000    -4.466000000     4.017000000
O    -0.859000000     1.699000000    -6.373000000
H    -0.068000000     1.464000000    -5.886000000
H    -0.961000000     0.998000000    -7.017000000
