161
-3017.32988
C     1.015000000    -0.486000000     0.947000000
H     1.773000000    -0.797000000     1.661000000
C     1.082000000     0.702000000     0.176000000
H     1.910000000     1.403000000     0.235000000
C     0.072000000     1.039000000    -0.706000000
C     0.219000000     2.296000000    -1.542000000
H    -0.672000000     2.878000000    -1.785000000
H     0.966000000     2.942000000    -1.076000000
H     0.616000000     1.934000000    -2.493000000
C    -1.031000000     0.228000000    -0.744000000
H    -1.800000000     0.406000000    -1.491000000
C    -1.225000000    -0.899000000     0.076000000
H    -2.120000000    -1.476000000     0.290000000
C    -0.154000000    -1.287000000     0.898000000
C    -0.215000000    -2.582000000     1.708000000
O    -1.210000000    -3.001000000     2.112000000
O     0.775000000    -3.302000000     1.730000000
O    -4.567000000    -3.447000000     5.301000000
H    -3.818000000    -3.920000000     4.939000000
H    -4.577000000    -2.616000000     4.825000000
O    -3.103000000    -0.974000000     2.644000000
H    -2.593000000    -1.773000000     2.511000000
H    -3.119000000    -0.855000000     3.593000000
O     5.525000000     4.487000000    -0.323000000
H     5.219000000     3.717000000    -0.802000000
H     5.015000000     4.484000000     0.486000000
O    -1.012000000    -4.050000000     6.146000000
H    -0.968000000    -4.129000000     7.099000000
H    -0.123000000    -4.244000000     5.849000000
O     3.487000000    -6.218000000     3.879000000
H     4.173000000    -6.875000000     3.994000000
H     2.750000000    -6.548000000     4.392000000
O    -4.868000000    -3.564000000    -0.316000000
H    -4.027000000    -4.014000000    -0.232000000
H    -4.715000000    -2.892000000    -0.980000000
O    -2.627000000     4.431000000    -0.067000000
H    -3.554000000     4.202000000     0.001000000
H    -2.163000000     3.620000000     0.140000000
O    -2.390000000     1.917000000     1.458000000
H    -2.989000000     1.414000000     2.010000000
H    -1.864000000     1.254000000     1.010000000
O     4.648000000     2.267000000    -1.753000000
H     4.586000000     1.412000000    -2.179000000
H     4.380000000     2.891000000    -2.428000000
O    -0.946000000     0.072000000    -4.264000000
H    -0.687000000     0.990000000    -4.353000000
H    -1.864000000     0.107000000    -3.997000000
O     0.503000000    -7.481000000     3.229000000
H    -0.305000000    -7.925000000     2.971000000
H     1.201000000    -8.072000000     2.947000000
O    -3.495000000     0.879000000    -3.440000000
H    -2.985000000     1.688000000    -3.482000000
H    -3.957000000     0.931000000    -2.603000000
O     4.573000000     1.321000000     1.057000000
H     4.386000000     1.594000000     0.159000000
H     4.545000000     0.365000000     1.027000000
O    -2.560000000    -5.655000000    -2.756000000
H    -2.352000000    -5.741000000    -1.826000000
H    -2.571000000    -4.711000000    -2.912000000
O    -2.794000000    -1.817000000     7.019000000
H    -2.340000000    -2.495000000     6.518000000
H    -3.563000000    -2.259000000     7.378000000
O    -1.554000000     6.158000000    -3.925000000
H    -0.884000000     5.489000000    -4.064000000
H    -2.069000000     6.153000000    -4.732000000
O    -5.132000000     0.862000000     2.073000000
H    -4.416000000     0.261000000     2.280000000
H    -5.697000000     0.366000000     1.480000000
O     1.263000000     4.026000000     2.868000000
H     0.906000000     3.192000000     3.173000000
H     1.065000000     4.643000000     3.573000000
O     2.019000000     2.552000000    -4.954000000
H     1.635000000     2.587000000    -5.830000000
H     2.545000000     1.752000000    -4.955000000
O     1.527000000    -4.837000000    -0.363000000
H     2.289000000    -4.337000000    -0.657000000
H     1.229000000    -4.378000000     0.423000000
O    -4.815000000     5.305000000    -2.863000000
H    -5.575000000     5.860000000    -2.691000000
H    -4.566000000     4.966000000    -2.003000000
O     2.943000000     6.510000000    -3.884000000
H     3.505000000     6.175000000    -3.185000000
H     3.546000000     6.934000000    -4.494000000
O    -5.110000000    -1.835000000    -2.436000000
H    -5.226000000    -1.078000000    -1.862000000
H    -5.945000000    -1.915000000    -2.898000000
O     0.269000000    -5.371000000    -2.957000000
H     0.536000000    -5.308000000    -2.041000000
H    -0.688000000    -5.389000000    -2.927000000
O     0.882000000    -4.783000000     3.846000000
H     0.931000000    -5.630000000     3.402000000
H     0.840000000    -4.142000000     3.136000000
O    -1.206000000     2.737000000    -4.324000000
H    -1.386000000     2.851000000    -5.257000000
H    -0.354000000     3.153000000    -4.193000000
O     5.433000000     0.491000000     3.372000000
H     5.160000000    -0.367000000     3.045000000
H     5.268000000     1.088000000     2.643000000
O     3.423000000    -1.536000000    -1.265000000
H     2.526000000    -1.246000000    -1.429000000
H     3.423000000    -2.463000000    -1.503000000
O     3.230000000     0.244000000    -5.621000000
H     2.731000000    -0.520000000    -5.913000000
H     4.067000000     0.172000000    -6.080000000
O     4.599000000    -1.619000000     1.500000000
H     4.076000000    -1.473000000     0.712000000
H     4.216000000    -2.400000000     1.901000000
O     4.921000000    -0.062000000    -3.016000000
H     4.777000000    -0.068000000    -3.963000000
H     4.615000000    -0.919000000    -2.721000000
O     1.756000000     6.001000000    -0.512000000
H     0.854000000     5.736000000    -0.691000000
H     1.770000000     6.184000000     0.428000000
O     0.818000000     4.776000000    -3.970000000
H     1.322000000     5.574000000    -4.131000000
H     1.409000000     4.065000000    -4.220000000
O     3.791000000     3.944000000     1.741000000
H     3.947000000     3.002000000     1.798000000
H     2.909000000     4.064000000     2.095000000
O    -1.609000000     6.548000000     1.940000000
H    -2.340000000     7.033000000     1.556000000
H    -1.717000000     5.655000000     1.612000000
O    -4.702000000     1.605000000    -0.987000000
H    -4.930000000     2.433000000    -0.565000000
H    -5.346000000     0.981000000    -0.654000000
O     6.155000000    -4.563000000     2.363000000
H     6.213000000    -4.236000000     3.261000000
H     5.216000000    -4.621000000     2.189000000
O     3.645000000    -6.408000000    -0.176000000
H     3.957000000    -6.848000000     0.615000000
H     2.927000000    -5.851000000     0.128000000
O    -2.386000000    -4.630000000     3.974000000
H    -1.982000000    -4.233000000     3.203000000
H    -1.648000000    -4.896000000     4.522000000
O    -0.945000000     6.248000000    -1.116000000
H    -1.115000000     6.228000000    -2.057000000
H    -1.496000000     5.551000000    -0.758000000
O    -2.649000000    -3.083000000    -3.286000000
H    -3.136000000    -2.455000000    -3.818000000
H    -2.464000000    -2.615000000    -2.471000000
O    -4.103000000     2.190000000    -5.822000000
H    -4.268000000     1.900000000    -4.925000000
H    -4.501000000     1.514000000    -6.370000000
O    -2.259000000    -4.361000000     0.076000000
H    -2.006000000    -5.284000000     0.088000000
H    -1.974000000    -4.023000000     0.925000000
O     1.128000000    -1.257000000    -2.867000000
H     0.283000000    -0.931000000    -3.176000000
H     1.774000000    -0.729000000    -3.336000000
O     4.312000000     6.736000000    -1.311000000
H     4.793000000     5.912000000    -1.226000000
H     3.441000000     6.542000000    -0.963000000
O    -3.642000000    -6.905000000     4.508000000
H    -4.348000000    -6.941000000     3.863000000
H    -3.226000000    -6.056000000     4.362000000
O     3.455000000    -4.040000000     2.444000000
H     2.572000000    -3.674000000     2.387000000
H     3.341000000    -4.869000000     2.908000000
O     4.429000000    -3.723000000     5.678000000
H     5.284000000    -3.561000000     5.279000000
H     4.033000000    -4.401000000     5.130000000
