161
-3078.68879
C     0.332000000    -1.076000000     1.013000000
H     0.515000000    -1.782000000     1.819000000
C     0.643000000     0.293000000     1.092000000
H     1.173000000     0.641000000     1.975000000
C     0.245000000     1.199000000     0.120000000
C     0.678000000     2.618000000     0.152000000
H    -0.133000000     3.318000000     0.365000000
H     1.489000000     2.898000000     0.827000000
H     1.061000000     2.812000000    -0.852000000
C    -0.502000000     0.764000000    -0.979000000
H    -0.741000000     1.530000000    -1.713000000
C    -0.807000000    -0.635000000    -1.074000000
H    -1.393000000    -0.898000000    -1.951000000
C    -0.353000000    -1.535000000    -0.126000000
C    -0.681000000    -3.003000000    -0.170000000
O    -1.468000000    -3.355000000    -1.050000000
O    -0.058000000    -3.787000000     0.552000000
O    -5.842000000    -0.630000000     0.564000000
H    -5.481000000    -0.262000000    -0.243000000
H    -6.761000000    -0.800000000     0.359000000
O     2.666000000     4.310000000    -5.279000000
H     2.666000000     3.681000000    -4.558000000
H     3.559000000     4.654000000    -5.297000000
O     2.106000000     6.055000000     3.489000000
H     2.730000000     5.606000000     4.059000000
H     1.627000000     6.642000000     4.074000000
O    -3.777000000     2.624000000    -3.463000000
H    -3.156000000     2.811000000    -2.758000000
H    -4.311000000     3.416000000    -3.527000000
O     2.000000000    -6.756000000     0.188000000
H     1.837000000    -7.687000000     0.341000000
H     1.131000000    -6.381000000     0.048000000
O     4.939000000     3.876000000     0.982000000
H     5.308000000     2.995000000     1.047000000
H     5.496000000     4.411000000     1.547000000
O    -0.737000000    -6.219000000     0.232000000
H    -0.879000000    -6.516000000     1.130000000
H    -0.375000000    -5.338000000     0.325000000
O    -6.123000000    -3.128000000    -1.003000000
H    -5.654000000    -3.216000000    -0.173000000
H    -5.484000000    -3.385000000    -1.668000000
O     1.830000000    -6.326000000    -3.357000000
H     2.063000000    -6.132000000    -4.265000000
H     1.007000000    -5.858000000    -3.216000000
O    -1.652000000     7.945000000     2.480000000
H    -1.167000000     8.344000000     3.202000000
H    -1.039000000     7.317000000     2.098000000
O    -3.062000000     6.243000000     0.576000000
H    -2.803000000     5.812000000     1.391000000
H    -3.223000000     7.152000000     0.826000000
O     3.531000000    -2.580000000     2.890000000
H     2.603000000    -2.777000000     2.765000000
H     3.978000000    -3.093000000     2.216000000
O    -1.254000000    -2.914000000     3.705000000
H    -1.508000000    -2.043000000     4.012000000
H    -2.064000000    -3.293000000     3.363000000
O    -1.591000000    -8.471000000    -1.416000000
H    -1.960000000    -8.944000000    -0.670000000
H    -1.151000000    -7.716000000    -1.026000000
O     1.707000000     0.601000000     5.405000000
H     1.752000000     1.135000000     4.612000000
H     1.525000000    -0.283000000     5.088000000
O    -2.709000000     5.001000000     2.996000000
H    -3.284000000     4.259000000     2.807000000
H    -2.197000000     4.721000000     3.754000000
O    -0.027000000    -4.399000000    -3.270000000
H    -0.354000000    -3.664000000    -3.787000000
H    -0.552000000    -4.382000000    -2.470000000
O     4.544000000    -0.259000000     3.644000000
H     4.263000000    -1.096000000     3.276000000
H     5.346000000    -0.465000000     4.123000000
O     3.770000000     2.542000000    -1.542000000
H     3.274000000     2.565000000    -2.361000000
H     3.708000000     1.633000000    -1.250000000
O    -3.146000000    -3.007000000     1.483000000
H    -3.197000000    -2.638000000     0.601000000
H    -3.805000000    -2.525000000     1.983000000
O    -1.600000000     1.823000000     2.835000000
H    -1.910000000     2.308000000     2.070000000
H    -0.955000000     1.210000000     2.484000000
O     3.504000000     6.958000000    -2.474000000
H     4.177000000     6.634000000    -3.074000000
H     3.430000000     6.277000000    -1.806000000
O     2.032000000     3.445000000     5.542000000
H     2.655000000     4.133000000     5.776000000
H     2.543000000     2.826000000     5.020000000
O     2.837000000     1.808000000     3.317000000
H     3.486000000     1.106000000     3.273000000
H     3.073000000     2.398000000     2.601000000
O     3.057000000     4.961000000    -0.626000000
H     2.828000000     4.120000000    -1.020000000
H     3.897000000     4.803000000    -0.194000000
O    -0.754000000     3.706000000     4.957000000
H     0.178000000     3.583000000     5.137000000
H    -0.975000000     3.000000000     4.350000000
O    -4.033000000     0.473000000    -1.291000000
H    -4.640000000     0.837000000    -1.936000000
H    -3.768000000    -0.370000000    -1.659000000
O    -0.094000000     2.361000000    -4.092000000
H    -0.260000000     2.418000000    -5.033000000
H    -0.364000000     3.212000000    -3.748000000
O     2.972000000    -5.970000000     2.727000000
H     2.432000000    -5.189000000     2.844000000
H     2.399000000    -6.593000000     2.279000000
O     1.621000000    -1.115000000    -3.399000000
H     0.744000000    -1.124000000    -3.783000000
H     1.909000000    -2.027000000    -3.441000000
O     2.787000000    -3.521000000    -3.360000000
H     2.816000000    -3.475000000    -2.404000000
H     1.952000000    -3.947000000    -3.554000000
O    -4.077000000    -2.687000000    -4.639000000
H    -4.996000000    -2.422000000    -4.600000000
H    -3.944000000    -2.956000000    -5.548000000
O     1.170000000    -3.950000000     2.848000000
H     0.722000000    -4.027000000     2.006000000
H     0.498000000    -3.630000000     3.449000000
O    -3.245000000    -5.279000000    -0.580000000
H    -2.754000000    -4.611000000    -1.058000000
H    -2.606000000    -5.664000000     0.020000000
O    -3.031000000     2.553000000     0.395000000
H    -2.985000000     1.694000000    -0.024000000
H    -2.546000000     3.133000000    -0.193000000
O    -2.062000000     4.530000000    -1.397000000
H    -1.480000000     4.731000000    -2.130000000
H    -2.073000000     5.331000000    -0.874000000
O    -3.704000000    -2.077000000    -2.020000000
H    -3.936000000    -2.314000000    -2.918000000
H    -2.930000000    -2.605000000    -1.824000000
O     1.416000000     6.958000000     0.982000000
H     1.595000000     6.379000000     1.723000000
H     1.676000000     6.450000000     0.214000000
O    -0.645000000     5.013000000    -3.666000000
H    -0.891000000     4.981000000    -4.591000000
H    -0.156000000     5.830000000    -3.576000000
O    -0.637000000    -2.765000000    -5.165000000
H    -1.533000000    -2.593000000    -5.454000000
H    -0.157000000    -2.950000000    -5.973000000
O     5.748000000     0.930000000     1.167000000
H     5.695000000     0.768000000     2.109000000
H     5.454000000     0.112000000     0.766000000
O     2.676000000    -0.008000000    -1.298000000
H     2.339000000    -0.468000000    -2.067000000
H     1.896000000     0.207000000    -0.787000000
O     5.698000000     4.419000000    -2.263000000
H     5.083000000     3.898000000    -1.747000000
H     6.545000000     3.995000000    -2.126000000
O     2.386000000    -3.786000000    -0.414000000
H     1.549000000    -3.653000000     0.029000000
H     2.462000000    -4.736000000    -0.503000000
O    -2.764000000    -0.604000000     4.159000000
H    -2.598000000     0.171000000     3.622000000
H    -3.507000000    -1.034000000     3.736000000
O     4.582000000    -6.138000000     0.428000000
H     4.939000000    -6.903000000     0.879000000
H     3.634000000    -6.268000000     0.451000000
O    -0.095000000    -7.427000000     2.748000000
H     0.096000000    -8.333000000     2.505000000
H     0.412000000    -7.280000000     3.547000000
O     2.306000000     1.894000000    -3.602000000
H     2.450000000     0.955000000    -3.486000000
H     1.356000000     1.999000000    -3.549000000
