161
-3023.36585
C     0.219000000    -0.284000000     1.392000000
H     0.376000000    -0.396000000     2.461000000
C     0.596000000     0.895000000     0.801000000
H     1.090000000     1.693000000     1.350000000
C     0.182000000     1.104000000    -0.557000000
C     0.517000000     2.407000000    -1.222000000
H    -0.113000000     2.521000000    -2.107000000
H     0.428000000     3.279000000    -0.570000000
H     1.576000000     2.295000000    -1.462000000
C    -0.385000000     0.067000000    -1.277000000
H    -0.646000000     0.226000000    -2.321000000
C    -0.676000000    -1.154000000    -0.658000000
H    -1.089000000    -2.011000000    -1.183000000
C    -0.265000000    -1.371000000     0.694000000
C    -0.550000000    -2.708000000     1.391000000
O    -0.989000000    -3.641000000     0.739000000
O    -0.263000000    -2.925000000     2.525000000
O    -2.237000000    -7.547000000     3.902000000
H    -2.195000000    -7.317000000     4.830000000
H    -2.257000000    -6.706000000     3.446000000
O    -2.063000000     5.397000000    -2.557000000
H    -2.503000000     4.550000000    -2.628000000
H    -2.514000000     5.956000000    -3.189000000
O     4.134000000    -4.126000000     0.592000000
H     3.326000000    -4.608000000     0.770000000
H     4.190000000    -4.098000000    -0.363000000
O     3.214000000    -2.703000000    -4.048000000
H     2.273000000    -2.563000000    -3.936000000
H     3.369000000    -2.545000000    -4.979000000
O    -3.907000000    -3.931000000     0.756000000
H    -4.259000000    -3.171000000     1.220000000
H    -3.034000000    -3.656000000     0.476000000
O    -2.492000000     4.281000000    -5.326000000
H    -3.391000000     4.046000000    -5.556000000
H    -2.310000000     5.065000000    -5.844000000
O     1.587000000    -3.598000000    -1.462000000
H     1.050000000    -4.158000000    -0.901000000
H     2.334000000    -4.147000000    -1.703000000
O     0.860000000     4.493000000    -4.646000000
H     1.590000000     4.980000000    -4.263000000
H     0.080000000     4.872000000    -4.240000000
O    -4.275000000    -6.515000000    -1.052000000
H    -3.803000000    -7.271000000    -1.401000000
H    -3.589000000    -5.886000000    -0.829000000
O    -4.675000000    -1.427000000     1.837000000
H    -4.037000000    -0.776000000     2.132000000
H    -5.316000000    -0.924000000     1.335000000
O    -3.482000000     0.829000000    -5.382000000
H    -2.934000000     0.074000000    -5.596000000
H    -4.358000000     0.462000000    -5.260000000
O    -2.630000000     2.613000000    -3.065000000
H    -3.100000000     1.833000000    -3.360000000
H    -2.717000000     3.233000000    -3.788000000
O    -4.758000000    -6.420000000     2.399000000
H    -4.053000000    -6.401000000     3.046000000
H    -4.390000000    -5.980000000     1.632000000
O    -1.753000000    -4.864000000    -1.487000000
H    -2.203000000    -4.155000000    -1.946000000
H    -1.512000000    -4.487000000    -0.641000000
O     4.075000000     0.865000000     3.704000000
H     4.757000000     1.511000000     3.888000000
H     4.193000000     0.194000000     4.376000000
O     4.748000000    -0.560000000    -2.916000000
H     4.459000000    -1.368000000    -3.339000000
H     4.135000000    -0.437000000    -2.191000000
O    -2.484000000     0.856000000     1.384000000
H    -2.165000000     1.653000000     0.961000000
H    -2.110000000     0.143000000     0.866000000
O    -1.319000000    -1.513000000     4.416000000
H    -0.553000000    -1.159000000     4.867000000
H    -0.963000000    -1.931000000     3.632000000
O    -3.195000000    -2.996000000     5.094000000
H    -3.745000000    -2.584000000     5.760000000
H    -2.561000000    -2.321000000     4.856000000
O     0.347000000     7.047000000    -1.532000000
H    -0.407000000     6.480000000    -1.695000000
H     0.960000000     6.496000000    -1.046000000
O    -4.114000000    -2.073000000    -1.968000000
H    -4.246000000    -1.125000000    -1.946000000
H    -4.878000000    -2.431000000    -1.516000000
O     1.692000000     4.599000000     4.100000000
H     0.832000000     4.619000000     3.681000000
H     2.016000000     3.713000000     3.941000000
O     4.599000000    -0.200000000     1.264000000
H     4.149000000    -0.047000000     2.095000000
H     4.025000000    -0.801000000     0.789000000
O    -0.551000000     4.841000000     2.202000000
H    -0.371000000     4.853000000     1.262000000
H    -1.386000000     4.379000000     2.279000000
O    -2.428000000     5.764000000     0.027000000
H    -2.446000000     6.691000000     0.267000000
H    -2.313000000     5.765000000    -0.923000000
O    -2.313000000     3.023000000    -0.042000000
H    -2.018000000     2.873000000    -0.940000000
H    -2.564000000     3.947000000    -0.024000000
O     2.850000000    -1.542000000    -0.498000000
H     2.056000000    -1.046000000    -0.696000000
H     2.632000000    -2.445000000    -0.728000000
O     3.174000000     2.034000000    -4.867000000
H     2.657000000     2.823000000    -5.028000000
H     2.525000000     1.357000000    -4.677000000
O     0.374000000    -2.454000000    -3.532000000
H    -0.533000000    -2.745000000    -3.626000000
H     0.614000000    -2.701000000    -2.639000000
O     0.230000000    -8.092000000     1.752000000
H     0.871000000    -8.800000000     1.811000000
H     0.757000000    -7.298000000     1.671000000
O     0.303000000    -4.224000000     5.863000000
H    -0.225000000    -4.992000000     6.077000000
H    -0.165000000    -3.491000000     6.264000000
O     1.062000000    -5.289000000     1.126000000
H     1.327000000    -5.024000000     2.007000000
H     0.208000000    -4.877000000     0.998000000
O     1.717000000     1.726000000     4.389000000
H     2.470000000     1.456000000     3.863000000
H     1.368000000     0.908000000     4.743000000
O    -4.698000000     0.855000000    -0.808000000
H    -4.067000000     1.574000000    -0.794000000
H    -5.387000000     1.152000000    -1.401000000
O     2.171000000    -5.760000000     4.627000000
H     1.441000000    -5.380000000     5.116000000
H     2.538000000    -5.025000000     4.136000000
O     1.598000000     5.825000000     0.370000000
H     1.601000000     6.064000000     1.296000000
H     2.517000000     5.655000000     0.163000000
O    -1.157000000    -6.525000000    -3.559000000
H    -1.246000000    -5.819000000    -2.919000000
H    -2.037000000    -6.633000000    -3.921000000
O    -2.270000000    -3.203000000    -4.034000000
H    -2.332000000    -2.799000000    -4.900000000
H    -3.167000000    -3.190000000    -3.700000000
O     4.242000000     5.153000000    -0.470000000
H     5.038000000     5.675000000    -0.375000000
H     4.440000000     4.331000000    -0.020000000
O     1.092000000    -0.830000000     5.818000000
H     0.663000000    -0.675000000     6.660000000
H     1.879000000    -1.328000000     6.039000000
O     3.183000000     5.758000000    -2.879000000
H     3.738000000     5.551000000    -3.631000000
H     3.717000000     5.531000000    -2.118000000
O     5.566000000     2.658000000     1.156000000
H     5.075000000     1.856000000     1.337000000
H     6.484000000     2.392000000     1.195000000
O     2.721000000    -2.994000000     6.115000000
H     1.875000000    -3.430000000     6.010000000
H     3.207000000    -3.558000000     6.718000000
O     2.473000000    -3.678000000     3.182000000
H     1.563000000    -3.381000000     3.216000000
H     2.903000000    -3.062000000     2.589000000
O    -3.598000000    -0.014000000     5.162000000
H    -3.746000000    -0.636000000     5.874000000
H    -2.723000000    -0.227000000     4.836000000
O    -2.121000000    -5.090000000     3.031000000
H    -1.942000000    -4.456000000     3.725000000
H    -1.453000000    -4.916000000     2.369000000
O    -0.196000000     2.878000000    -6.581000000
H    -0.991000000     3.134000000    -6.114000000
H     0.490000000     3.432000000    -6.208000000
O     0.990000000     0.286000000    -4.743000000
H     1.016000000    -0.642000000    -4.508000000
H     0.493000000     0.312000000    -5.561000000
