161
-3082.05537
C     0.559000000    -1.305000000     0.115000000
H     1.012000000    -2.288000000     0.012000000
C     1.301000000    -0.164000000     0.027000000
H     2.363000000    -0.234000000    -0.189000000
C     0.595000000     1.023000000    -0.149000000
C     1.464000000     2.276000000    -0.241000000
H     2.323000000     2.091000000     0.408000000
H     1.846000000     2.519000000    -1.235000000
H     0.957000000     3.150000000     0.173000000
C    -0.771000000     1.059000000    -0.077000000
H    -1.249000000     2.024000000    -0.225000000
C    -1.569000000    -0.059000000     0.114000000
H    -2.652000000    -0.048000000     0.030000000
C    -0.836000000    -1.252000000     0.152000000
C    -1.575000000    -2.580000000     0.320000000
O    -2.523000000    -2.785000000    -0.444000000
O    -1.247000000    -3.420000000     1.213000000
O    -4.901000000    -2.607000000     1.465000000
H    -4.601000000    -2.660000000     0.557000000
H    -5.756000000    -3.038000000     1.460000000
O    -3.139000000     2.372000000    -2.384000000
H    -3.724000000     2.967000000    -2.853000000
H    -2.290000000     2.814000000    -2.391000000
O     4.416000000     2.143000000     4.112000000
H     3.636000000     1.925000000     3.602000000
H     4.692000000     2.995000000     3.775000000
O    -2.415000000    -6.066000000     0.817000000
H    -1.696000000    -6.698000000     0.793000000
H    -1.995000000    -5.219000000     0.666000000
O    -6.248000000    -4.436000000    -1.406000000
H    -5.649000000    -5.175000000    -1.296000000
H    -5.699000000    -3.662000000    -1.285000000
O    -4.162000000    -3.549000000    -4.122000000
H    -4.788000000    -4.109000000    -4.581000000
H    -4.655000000    -3.197000000    -3.380000000
O     4.790000000     4.564000000     2.667000000
H     4.964000000     5.260000000     3.301000000
H     4.968000000     4.965000000     1.816000000
O    -5.198000000    -5.577000000     2.112000000
H    -5.668000000    -6.406000000     2.018000000
H    -4.435000000    -5.669000000     1.540000000
O     1.026000000    -5.834000000    -3.162000000
H     1.125000000    -5.156000000    -3.831000000
H     0.184000000    -5.642000000    -2.749000000
O     3.406000000    -3.228000000    -2.406000000
H     3.513000000    -4.172000000    -2.290000000
H     3.781000000    -3.049000000    -3.269000000
O     0.135000000     5.699000000    -1.170000000
H     0.091000000     6.524000000    -1.654000000
H     0.354000000     5.958000000    -0.275000000
O    -2.409000000    -6.514000000     3.893000000
H    -2.298000000    -6.241000000     4.803000000
H    -2.997000000    -5.859000000     3.516000000
O     2.008000000     4.425000000     2.790000000
H     1.797000000     3.909000000     3.569000000
H     2.938000000     4.259000000     2.638000000
O    -1.709000000    -4.791000000    -1.680000000
H    -2.037000000    -4.032000000    -1.196000000
H    -2.497000000    -5.218000000    -2.017000000
O     2.874000000    -1.562000000     3.002000000
H     2.993000000    -2.299000000     2.403000000
H     3.586000000    -1.651000000     3.635000000
O     4.163000000     2.076000000    -2.535000000
H     3.978000000     1.138000000    -2.595000000
H     3.480000000     2.489000000    -3.063000000
O    -0.234000000    -3.175000000     3.904000000
H    -0.680000000    -3.128000000     3.058000000
H    -0.915000000    -3.452000000     4.518000000
O    -4.588000000     0.031000000     2.052000000
H    -4.661000000    -0.910000000     1.894000000
H    -4.575000000     0.420000000     1.178000000
O     1.791000000     2.875000000     4.826000000
H     1.996000000     1.980000000     4.554000000
H     1.479000000     2.787000000     5.726000000
O    -3.460000000     5.477000000     2.174000000
H    -3.373000000     4.785000000     1.519000000
H    -2.870000000     6.168000000     1.873000000
O     1.857000000     0.986000000     2.847000000
H     2.072000000     0.061000000     2.969000000
H     1.633000000     1.060000000     1.920000000
O     6.643000000     1.876000000    -1.333000000
H     5.857000000     1.697000000    -1.850000000
H     6.705000000     1.137000000    -0.728000000
O    -3.336000000     1.280000000     3.977000000
H    -2.643000000     0.640000000     4.143000000
H    -3.728000000     0.999000000     3.150000000
O     5.343000000    -2.860000000    -0.317000000
H     6.163000000    -3.242000000    -0.630000000
H     4.768000000    -2.865000000    -1.083000000
O    -2.549000000    -0.339000000    -3.096000000
H    -2.617000000     0.435000000    -2.537000000
H    -2.912000000    -0.060000000    -3.937000000
O     1.568000000    -6.100000000     3.422000000
H     1.737000000    -5.378000000     2.816000000
H     1.678000000    -5.714000000     4.291000000
O    -0.657000000    -2.505000000    -2.865000000
H    -0.983000000    -3.370000000    -2.617000000
H    -1.373000000    -1.907000000    -2.645000000
O     5.261000000    -0.897000000    -3.688000000
H     5.996000000    -1.416000000    -3.362000000
H     4.899000000    -1.418000000    -4.404000000
O     2.077000000    -4.094000000     5.352000000
H     1.252000000    -3.688000000     5.088000000
H     2.376000000    -3.568000000     6.094000000
O     6.775000000    -0.461000000     0.310000000
H     6.814000000    -0.196000000     1.229000000
H     6.304000000    -1.294000000     0.320000000
O     0.823000000     6.584000000     1.492000000
H     0.975000000     7.212000000     2.198000000
H     1.123000000     5.747000000     1.847000000
O    -2.902000000     4.403000000    -0.176000000
H    -3.637000000     4.415000000    -0.789000000
H    -2.222000000     4.921000000    -0.608000000
O    -4.458000000    -6.316000000    -1.173000000
H    -3.702000000    -5.971000000    -0.699000000
H    -4.151000000    -7.141000000    -1.547000000
O    -5.148000000     0.590000000    -1.170000000
H    -5.965000000     1.013000000    -0.909000000
H    -4.593000000     1.308000000    -1.476000000
O    -0.898000000     4.084000000    -3.101000000
H    -0.243000000     3.391000000    -3.021000000
H    -0.652000000     4.725000000    -2.434000000
O    -4.811000000    -2.165000000    -1.763000000
H    -4.874000000    -1.221000000    -1.911000000
H    -3.900000000    -2.307000000    -1.507000000
O     4.456000000     3.837000000    -0.281000000
H     4.640000000     3.266000000    -1.027000000
H     3.537000000     4.082000000    -0.389000000
O    -1.940000000    -2.746000000    -5.396000000
H    -2.776000000    -2.883000000    -4.950000000
H    -1.355000000    -2.419000000    -4.712000000
O     1.776000000    -0.746000000    -3.329000000
H     2.530000000    -1.324000000    -3.211000000
H     1.064000000    -1.184000000    -2.862000000
O     7.222000000     4.391000000    -0.302000000
H     6.270000000     4.335000000    -0.383000000
H     7.532000000     3.509000000    -0.510000000
O     1.168000000    -4.860000000     0.942000000
H     0.282000000    -4.526000000     1.086000000
H     1.113000000    -5.335000000     0.113000000
O     3.598000000    -3.829000000     1.954000000
H     4.289000000    -3.558000000     1.351000000
H     2.830000000    -3.956000000     1.397000000
O     0.122000000    -0.196000000     4.639000000
H     0.576000000     0.357000000     4.003000000
H     0.233000000    -1.086000000     4.305000000
O    -0.604000000    -7.587000000     2.215000000
H     0.177000000    -7.107000000     2.490000000
H    -1.320000000    -7.179000000     2.702000000
O    -3.001000000    -3.678000000     3.182000000
H    -3.915000000    -3.568000000     2.920000000
H    -2.504000000    -3.557000000     2.373000000
O     0.627000000     1.836000000    -3.308000000
H     1.391000000     1.301000000    -3.524000000
H     0.012000000     1.223000000    -2.905000000
O    -2.134000000    -3.690000000     5.835000000
H    -2.876000000    -3.911000000     6.397000000
H    -2.510000000    -3.617000000     4.958000000
O     3.156000000     4.602000000    -3.725000000
H     3.747000000     4.853000000    -4.435000000
H     3.165000000     5.351000000    -3.129000000
