161
-3038.82527
C    -0.378000000     0.181000000     1.426000000
H    -0.724000000     0.328000000     2.446000000
C    -0.131000000     1.208000000     0.516000000
H    -0.400000000     2.237000000     0.742000000
C     0.045000000     0.939000000    -0.815000000
C     0.206000000     2.063000000    -1.796000000
H    -0.330000000     1.811000000    -2.713000000
H    -0.228000000     2.951000000    -1.330000000
H     1.247000000     2.229000000    -2.078000000
C     0.449000000    -0.359000000    -1.204000000
H     0.708000000    -0.618000000    -2.228000000
C     0.225000000    -1.400000000    -0.290000000
H     0.380000000    -2.439000000    -0.569000000
C    -0.102000000    -1.155000000     1.027000000
C    -0.290000000    -2.338000000     1.991000000
O     0.520000000    -3.252000000     2.061000000
O    -1.194000000    -2.394000000     2.810000000
O    -3.652000000    -6.574000000     2.294000000
H    -2.825000000    -6.253000000     2.653000000
H    -3.745000000    -7.455000000     2.656000000
O     2.723000000    -6.108000000     5.887000000
H     2.345000000    -5.499000000     5.253000000
H     3.586000000    -6.320000000     5.532000000
O    -5.238000000    -2.276000000     5.161000000
H    -4.759000000    -1.937000000     4.405000000
H    -4.586000000    -2.775000000     5.654000000
O    -1.014000000     0.414000000    -5.159000000
H    -0.958000000     1.218000000    -5.674000000
H    -0.240000000     0.434000000    -4.597000000
O    -2.001000000     3.683000000     2.775000000
H    -2.677000000     3.407000000     3.393000000
H    -1.176000000     3.482000000     3.217000000
O    -3.895000000    -2.251000000     2.620000000
H    -2.958000000    -2.258000000     2.816000000
H    -3.984000000    -1.629000000     1.898000000
O    -1.339000000     2.713000000    -6.831000000
H    -1.307000000     3.645000000    -6.613000000
H    -0.784000000     2.630000000    -7.607000000
O    -1.025000000    -3.646000000    -3.163000000
H    -0.083000000    -3.520000000    -3.044000000
H    -1.407000000    -3.401000000    -2.320000000
O    -0.123000000     4.755000000     0.767000000
H    -0.444000000     4.777000000     1.668000000
H     0.737000000     4.340000000     0.829000000
O    -3.136000000    -0.714000000     0.331000000
H    -3.426000000    -0.026000000    -0.267000000
H    -3.052000000    -0.276000000     1.178000000
O    -2.029000000    -5.942000000    -1.845000000
H    -1.749000000    -5.706000000    -0.961000000
H    -1.326000000    -6.501000000    -2.177000000
O     0.946000000     4.728000000    -3.707000000
H     0.723000000     4.947000000    -4.612000000
H     0.126000000     4.836000000    -3.225000000
O    -2.180000000    -4.739000000     3.976000000
H    -1.780000000    -3.955000000     3.599000000
H    -2.508000000    -4.454000000     4.829000000
O    -3.144000000    -4.429000000     0.705000000
H    -2.676000000    -4.030000000     1.440000000
H    -3.496000000    -5.245000000     1.060000000
O     3.644000000    -4.976000000    -1.348000000
H     4.506000000    -4.575000000    -1.461000000
H     3.202000000    -4.418000000    -0.709000000
O     3.017000000     0.321000000     1.762000000
H     2.139000000    -0.039000000     1.635000000
H     3.528000000    -0.411000000     2.108000000
O    -2.891000000    -2.426000000    -5.191000000
H    -2.142000000    -2.756000000    -4.695000000
H    -3.641000000    -2.562000000    -4.612000000
O     4.961000000     1.515000000    -0.330000000
H     5.319000000     1.215000000     0.506000000
H     4.955000000     2.469000000    -0.259000000
O     2.010000000     0.591000000    -4.917000000
H     2.088000000     1.312000000    -5.541000000
H     2.514000000     0.878000000    -4.156000000
O    -2.315000000     6.589000000     1.796000000
H    -2.287000000     5.654000000     1.999000000
H    -1.402000000     6.826000000     1.634000000
O    -1.652000000     3.173000000     6.081000000
H    -1.313000000     2.317000000     6.342000000
H    -2.473000000     2.979000000     5.629000000
O    -3.909000000     0.633000000     2.652000000
H    -4.759000000     0.996000000     2.402000000
H    -3.696000000     1.068000000     3.478000000
O    -5.751000000    -4.707000000     3.126000000
H    -4.999000000    -5.288000000     3.006000000
H    -5.397000000    -3.827000000     2.995000000
O     2.613000000     6.081000000     1.137000000
H     2.995000000     6.529000000     0.382000000
H     2.812000000     5.156000000     0.994000000
O    -0.902000000     5.577000000    -1.780000000
H    -1.169000000     5.055000000    -1.023000000
H    -0.286000000     6.218000000    -1.423000000
O     4.161000000    -1.616000000     3.099000000
H     4.772000000    -2.353000000     3.085000000
H     3.672000000    -1.726000000     3.914000000
O     0.605000000    -6.051000000     2.227000000
H     0.438000000    -6.316000000     1.322000000
H     0.772000000    -5.110000000     2.175000000
O     0.044000000    -2.111000000    -6.643000000
H    -0.464000000    -1.629000000    -5.991000000
H    -0.554000000    -2.788000000    -6.960000000
O    -1.452000000    -3.073000000     6.528000000
H    -2.354000000    -3.329000000     6.722000000
H    -0.922000000    -3.807000000     6.841000000
O     2.977000000    -3.598000000     0.831000000
H     3.450000000    -3.586000000     1.664000000
H     2.115000000    -3.238000000     1.040000000
O     0.520000000     3.213000000     3.362000000
H     1.082000000     3.189000000     2.587000000
H     0.994000000     2.703000000     4.018000000
O    -3.681000000     0.817000000    -2.076000000
H    -3.520000000    -0.033000000    -2.485000000
H    -3.937000000     1.387000000    -2.801000000
O     0.330000000    -8.059000000     4.145000000
H     0.079000000    -8.656000000     3.441000000
H     0.407000000    -7.205000000     3.719000000
O     3.650000000     3.984000000    -3.366000000
H     4.013000000     4.573000000    -2.705000000
H     2.706000000     4.140000000    -3.333000000
O     4.899000000    -2.182000000    -0.985000000
H     4.914000000    -1.232000000    -1.101000000
H     4.213000000    -2.334000000    -0.335000000
O    -3.258000000     6.038000000    -4.137000000
H    -4.096000000     6.436000000    -3.902000000
H    -2.765000000     6.014000000    -3.317000000
O    -2.986000000    -2.657000000    -1.452000000
H    -3.165000000    -3.317000000    -0.784000000
H    -2.863000000    -1.845000000    -0.960000000
O    -0.126000000    -1.284000000     5.036000000
H    -0.294000000    -1.864000000     5.778000000
H    -0.831000000    -1.476000000     4.417000000
O     2.101000000     3.212000000     0.790000000
H     1.688000000     2.555000000     0.230000000
H     2.818000000     2.744000000     1.220000000
O     1.359000000     1.018000000     5.350000000
H     1.789000000     1.016000000     6.205000000
H     1.026000000     0.127000000     5.247000000
O     3.304000000    -6.337000000     2.521000000
H     2.372000000    -6.151000000     2.637000000
H     3.728000000    -5.481000000     2.584000000
O     4.364000000     1.073000000    -3.152000000
H     4.392000000     2.027000000    -3.084000000
H     4.437000000     0.766000000    -2.248000000
O     3.038000000    -2.174000000     5.511000000
H     3.756000000    -2.559000000     6.012000000
H     2.526000000    -1.691000000     6.159000000
O    -3.012000000     3.395000000     0.200000000
H    -2.879000000     2.459000000     0.055000000
H    -2.763000000     3.535000000     1.114000000
O    -5.216000000     4.530000000    -1.081000000
H    -4.362000000     4.112000000    -0.972000000
H    -5.767000000     4.127000000    -0.410000000
O     2.069000000    -4.151000000     4.029000000
H     1.422000000    -3.753000000     3.448000000
H     2.423000000    -3.418000000     4.532000000
O    -3.814000000     0.439000000    -5.196000000
H    -2.865000000     0.339000000    -5.267000000
H    -4.160000000    -0.437000000    -5.363000000
O     1.782000000    -3.911000000    -3.296000000
H     2.535000000    -4.136000000    -2.750000000
H     2.158000000    -3.724000000    -4.157000000
