161
-3038.17379
C    -0.310000000    -1.217000000     0.762000000
H    -0.646000000    -2.002000000     1.435000000
C    -1.128000000    -0.097000000     0.593000000
H    -2.090000000    -0.104000000     1.098000000
C    -0.760000000     0.987000000    -0.161000000
C    -1.651000000     2.152000000    -0.335000000
H    -1.091000000     2.933000000    -0.855000000
H    -2.564000000     1.960000000    -0.901000000
H    -1.911000000     2.525000000     0.658000000
C     0.448000000     0.871000000    -0.872000000
H     0.777000000     1.700000000    -1.494000000
C     1.308000000    -0.220000000    -0.695000000
H     2.276000000    -0.184000000    -1.188000000
C     0.952000000    -1.270000000     0.207000000
C     1.908000000    -2.382000000     0.532000000
O     3.037000000    -2.317000000     0.040000000
O     1.446000000    -3.330000000     1.172000000
O    -4.805000000     5.286000000     3.003000000
H    -4.248000000     4.544000000     3.235000000
H    -4.697000000     5.381000000     2.057000000
O    -0.263000000    -4.741000000    -0.684000000
H     0.041000000    -5.644000000    -0.586000000
H     0.190000000    -4.259000000     0.007000000
O     2.559000000    -5.523000000     2.713000000
H     2.090000000    -4.722000000     2.483000000
H     1.873000000    -6.137000000     2.973000000
O    -4.103000000     0.435000000     4.501000000
H    -4.922000000     0.504000000     4.010000000
H    -3.965000000    -0.507000000     4.606000000
O    -1.802000000     5.835000000    -3.775000000
H    -1.018000000     5.391000000    -3.451000000
H    -2.281000000     5.156000000    -4.250000000
O     4.406000000    -0.214000000     3.343000000
H     5.198000000     0.156000000     3.733000000
H     4.190000000    -0.960000000     3.902000000
O     3.063000000     5.117000000    -2.304000000
H     2.822000000     5.890000000    -1.794000000
H     3.224000000     4.438000000    -1.648000000
O     0.462000000    -3.753000000    -3.334000000
H     1.218000000    -3.314000000    -2.943000000
H     0.017000000    -4.168000000    -2.595000000
O    -3.990000000     0.226000000    -4.114000000
H    -3.289000000     0.049000000    -4.741000000
H    -3.700000000    -0.196000000    -3.305000000
O    -3.181000000     2.856000000    -3.605000000
H    -2.254000000     2.731000000    -3.806000000
H    -3.599000000     2.042000000    -3.885000000
O    -0.024000000    -3.087000000     3.405000000
H    -0.922000000    -2.829000000     3.200000000
H     0.405000000    -3.162000000     2.552000000
O     0.731000000     4.170000000    -3.484000000
H     1.057000000     3.509000000    -4.096000000
H     1.493000000     4.400000000    -2.952000000
O    -3.659000000    -2.816000000     4.942000000
H    -3.511000000    -2.696000000     4.004000000
H    -3.901000000    -3.738000000     5.030000000
O     0.168000000    -7.322000000     0.325000000
H     0.431000000    -7.637000000     1.190000000
H    -0.353000000    -8.037000000    -0.042000000
O     4.076000000     3.947000000     0.401000000
H     3.790000000     3.369000000     1.108000000
H     4.852000000     3.518000000     0.040000000
O     0.724000000    -0.903000000    -5.579000000
H     1.256000000    -1.404000000    -6.197000000
H     1.309000000    -0.738000000    -4.839000000
O     1.752000000     2.018000000    -4.980000000
H     1.126000000     1.426000000    -5.396000000
H     2.209000000     2.435000000    -5.710000000
O    -5.409000000     3.510000000    -1.961000000
H    -4.571000000     3.416000000    -2.412000000
H    -5.178000000     3.838000000    -1.092000000
O    -4.690000000     5.518000000    -4.580000000
H    -4.527000000     5.142000000    -3.715000000
H    -5.360000000     6.185000000    -4.429000000
O    -3.081000000     2.979000000     3.395000000
H    -2.366000000     2.341000000     3.393000000
H    -3.701000000     2.640000000     4.040000000
O    -1.268000000     4.726000000     1.677000000
H    -1.831000000     4.663000000     2.449000000
H    -0.418000000     4.399000000     1.973000000
O    -4.401000000    -1.880000000     0.488000000
H    -4.610000000    -1.126000000    -0.063000000
H    -5.009000000    -2.562000000     0.201000000
O     6.633000000    -1.325000000     1.620000000
H     7.209000000    -0.846000000     2.216000000
H     5.821000000    -1.442000000     2.114000000
O     6.213000000    -4.752000000     3.383000000
H     6.601000000    -3.877000000     3.350000000
H     5.547000000    -4.745000000     2.696000000
O     7.951000000    -3.346000000    -1.184000000
H     8.732000000    -3.000000000    -0.754000000
H     7.235000000    -2.802000000    -0.855000000
O     4.762000000    -4.556000000     1.204000000
H     4.515000000    -3.724000000     0.799000000
H     3.950000000    -4.887000000     1.587000000
O    -5.719000000     0.988000000     2.054000000
H    -5.295000000     1.841000000     2.147000000
H    -5.564000000     0.741000000     1.143000000
O     0.180000000     7.133000000    -1.884000000
H     0.278000000     6.772000000    -2.765000000
H     1.032000000     7.524000000    -1.690000000
O     5.690000000    -1.739000000    -1.034000000
H     4.740000000    -1.621000000    -1.002000000
H     5.987000000    -1.519000000    -0.151000000
O    -4.839000000     5.767000000     0.372000000
H    -5.211000000     6.311000000    -0.322000000
H    -3.903000000     5.729000000     0.172000000
O     1.215000000     3.908000000     2.738000000
H     1.609000000     3.057000000     2.545000000
H     1.669000000     4.209000000     3.525000000
O    -1.417000000    -1.224000000     5.872000000
H    -1.489000000    -1.739000000     6.676000000
H    -2.096000000    -1.580000000     5.298000000
O     6.514000000    -5.370000000    -1.983000000
H     6.837000000    -4.504000000    -1.734000000
H     7.171000000    -5.706000000    -2.592000000
O     3.049000000    -2.781000000    -2.744000000
H     3.173000000    -2.428000000    -1.863000000
H     3.921000000    -2.756000000    -3.136000000
O     2.697000000     6.098000000     1.219000000
H     2.105000000     5.376000000     1.432000000
H     3.413000000     5.686000000     0.735000000
O    -2.199000000    -5.879000000     1.802000000
H    -1.437000000    -5.796000000     1.227000000
H    -1.830000000    -5.912000000     2.685000000
O     5.598000000    -2.740000000    -3.850000000
H     6.442000000    -2.324000000    -3.673000000
H     5.261000000    -2.281000000    -4.619000000
O     1.362000000    -2.388000000     5.542000000
H     0.501000000    -2.030000000     5.759000000
H     1.252000000    -2.765000000     4.669000000
O     0.111000000     7.448000000     1.223000000
H     0.985000000     7.090000000     1.063000000
H    -0.381000000     7.241000000     0.428000000
O     3.691000000    -0.082000000    -4.092000000
H     3.459000000     0.836000000    -3.954000000
H     3.499000000    -0.506000000    -3.256000000
O    -1.310000000     0.983000000     3.363000000
H    -1.370000000     0.134000000     3.802000000
H    -1.167000000     0.766000000     2.442000000
O     4.821000000     0.975000000    -1.204000000
H     5.279000000     1.720000000    -0.816000000
H     5.491000000     0.296000000    -1.282000000
O     2.422000000     1.397000000     2.252000000
H     3.127000000     0.817000000     2.541000000
H     2.181000000     1.068000000     1.386000000
O    -5.255000000     0.740000000    -0.925000000
H    -5.800000000     0.095000000    -1.375000000
H    -5.497000000     1.577000000    -1.323000000
O     4.222000000    -6.339000000     4.718000000
H     3.855000000    -5.935000000     3.931000000
H     4.855000000    -5.699000000     5.042000000
O    -2.988000000    -3.313000000     2.454000000
H    -3.057000000    -4.221000000     2.159000000
H    -3.284000000    -2.795000000     1.706000000
O    -2.323000000     5.757000000    -0.646000000
H    -1.856000000     5.282000000     0.041000000
H    -1.739000000     5.719000000    -1.403000000
O    -2.106000000    -1.623000000    -2.515000000
H    -1.594000000    -0.989000000    -2.012000000
H    -2.218000000    -2.365000000    -1.921000000
