161
-3074.02605
C    -0.801000000    -0.198000000     1.201000000
H    -1.423000000    -0.295000000     2.087000000
C    -0.312000000     1.030000000     0.707000000
H    -0.507000000     1.927000000     1.291000000
C     0.405000000     1.088000000    -0.480000000
C     0.766000000     2.423000000    -1.082000000
H     1.685000000     2.794000000    -0.622000000
H     1.062000000     2.310000000    -2.127000000
H    -0.056000000     3.131000000    -0.956000000
C     0.618000000    -0.072000000    -1.114000000
H     1.151000000    -0.083000000    -2.062000000
C     0.268000000    -1.320000000    -0.630000000
H     0.427000000    -2.233000000    -1.200000000
C    -0.476000000    -1.395000000     0.606000000
C    -0.896000000    -2.700000000     1.209000000
O    -0.243000000    -3.732000000     0.961000000
O    -1.662000000    -2.676000000     2.203000000
O    -3.006000000    -7.347000000     3.185000000
H    -3.308000000    -7.423000000     4.091000000
H    -2.308000000    -6.693000000     3.219000000
O     1.639000000    -6.378000000     4.728000000
H     1.987000000    -5.758000000     4.088000000
H     2.262000000    -6.348000000     5.454000000
O     4.018000000    -3.702000000     1.703000000
H     3.959000000    -3.432000000     0.786000000
H     4.935000000    -3.559000000     1.936000000
O    -3.969000000     1.161000000     2.471000000
H    -4.889000000     1.408000000     2.565000000
H    -3.616000000     1.212000000     3.359000000
O     5.121000000     4.516000000    -1.648000000
H     5.516000000     3.660000000    -1.812000000
H     5.865000000     5.117000000    -1.597000000
O    -4.099000000    -3.422000000     2.927000000
H    -3.283000000    -3.311000000     2.440000000
H    -4.629000000    -2.663000000     2.682000000
O    -0.466000000    -2.502000000    -4.157000000
H     0.456000000    -2.756000000    -4.108000000
H    -0.780000000    -2.893000000    -4.972000000
O    -2.561000000     4.034000000    -3.212000000
H    -3.002000000     4.204000000    -4.044000000
H    -2.011000000     3.269000000    -3.385000000
O    -3.879000000    -2.811000000    -2.212000000
H    -3.244000000    -3.332000000    -1.720000000
H    -3.638000000    -1.903000000    -2.027000000
O    -0.192000000     4.054000000     2.657000000
H    -0.389000000     3.989000000     3.592000000
H    -0.791000000     4.726000000     2.332000000
O    -0.566000000     3.413000000    -5.111000000
H    -0.368000000     3.709000000    -6.000000000
H    -0.432000000     2.466000000    -5.139000000
O    -1.337000000    -5.127000000     3.653000000
H    -1.562000000    -4.375000000     3.105000000
H    -0.446000000    -5.358000000     3.390000000
O    -4.623000000    -5.247000000    -0.265000000
H    -4.901000000    -5.299000000     0.650000000
H    -3.747000000    -5.634000000    -0.270000000
O    -1.956000000    -6.038000000    -0.126000000
H    -1.936000000    -5.705000000    -1.023000000
H    -1.415000000    -5.424000000     0.370000000
O     2.373000000     1.319000000     4.727000000
H     1.688000000     0.680000000     4.925000000
H     2.541000000     1.207000000     3.791000000
O     2.914000000    -5.781000000    -2.783000000
H     3.810000000    -5.864000000    -2.457000000
H     2.400000000    -5.543000000    -2.011000000
O     2.442000000     3.625000000     1.962000000
H     2.166000000     2.939000000     1.355000000
H     1.627000000     3.948000000     2.346000000
O     4.601000000     0.744000000    -2.135000000
H     4.022000000     0.043000000    -2.435000000
H     4.764000000     0.542000000    -1.214000000
O    -3.470000000     5.318000000    -0.971000000
H    -3.221000000     5.062000000    -1.859000000
H    -2.806000000     4.918000000    -0.410000000
O    -4.382000000    -0.675000000     4.965000000
H    -3.575000000    -0.941000000     4.525000000
H    -5.081000000    -1.042000000     4.425000000
O     4.747000000     4.603000000     1.209000000
H     4.511000000     4.243000000     0.354000000
H     4.022000000     4.354000000     1.782000000
O    -5.331000000    -5.792000000     2.304000000
H    -4.741000000    -6.523000000     2.492000000
H    -4.832000000    -5.013000000     2.549000000
O    -1.025000000     6.270000000     1.070000000
H    -1.209000000     7.194000000     1.240000000
H    -0.089000000     6.176000000     1.244000000
O    -1.836000000     6.755000000    -3.770000000
H    -1.171000000     7.069000000    -3.157000000
H    -1.954000000     5.833000000    -3.544000000
O     2.258000000     0.491000000     1.740000000
H     1.315000000     0.625000000     1.645000000
H     2.337000000    -0.365000000     2.162000000
O     3.543000000    -2.380000000    -0.766000000
H     3.913000000    -1.555000000    -0.454000000
H     3.242000000    -2.187000000    -1.654000000
O     1.181000000     5.000000000    -3.064000000
H     0.749000000     5.804000000    -2.775000000
H     0.630000000     4.676000000    -3.777000000
O     0.489000000    -7.163000000     0.040000000
H    -0.396000000    -7.396000000    -0.240000000
H     0.552000000    -6.221000000    -0.120000000
O    -2.558000000    -4.451000000     6.071000000
H    -2.145000000    -4.589000000     5.218000000
H    -1.871000000    -4.651000000     6.706000000
O     1.784000000    -4.494000000    -0.449000000
H     2.332000000    -3.736000000    -0.652000000
H     0.976000000    -4.118000000    -0.098000000
O    -2.989000000     2.633000000     4.741000000
H    -2.370000000     3.298000000     5.043000000
H    -3.210000000     2.137000000     5.529000000
O     4.688000000    -0.184000000     0.299000000
H     5.347000000    -0.203000000     0.992000000
H     3.892000000     0.123000000     0.733000000
O    -2.663000000    -0.153000000    -2.060000000
H    -3.080000000     0.692000000    -2.226000000
H    -2.017000000    -0.242000000    -2.761000000
O    -0.375000000     7.349000000    -1.540000000
H    -0.522000000     7.005000000    -0.659000000
H    -0.795000000     8.209000000    -1.535000000
O     3.295000000     3.152000000    -3.854000000
H     4.007000000     3.323000000    -3.237000000
H     2.520000000     3.523000000    -3.434000000
O     3.014000000    -1.334000000    -3.370000000
H     2.906000000    -0.663000000    -4.044000000
H     2.738000000    -2.147000000    -3.795000000
O    -1.781000000    -4.802000000    -2.609000000
H    -1.924000000    -5.450000000    -3.299000000
H    -1.357000000    -4.068000000    -3.054000000
O    -1.591000000    -1.910000000     4.773000000
H    -2.107000000    -2.641000000     5.114000000
H    -1.509000000    -2.092000000     3.836000000
O     1.623000000     6.618000000     1.631000000
H     2.228000000     6.472000000     2.358000000
H     2.064000000     6.237000000     0.871000000
O     2.835000000     5.487000000    -0.898000000
H     3.567000000     5.334000000    -1.495000000
H     2.061000000     5.217000000    -1.393000000
O     0.494000000    -0.475000000     6.248000000
H     0.229000000     0.136000000     6.937000000
H    -0.324000000    -0.879000000     5.959000000
O     3.056000000    -6.817000000     1.677000000
H     2.310000000    -6.778000000     1.079000000
H     2.955000000    -6.046000000     2.235000000
O     3.034000000     0.686000000    -5.264000000
H     2.658000000     1.474000000    -4.872000000
H     3.947000000     0.916000000    -5.435000000
O     1.596000000    -1.428000000     3.533000000
H     0.701000000    -1.160000000     3.742000000
H     1.583000000    -2.382000000     3.602000000
O    -3.139000000     1.867000000    -0.065000000
H    -2.428000000     1.235000000    -0.174000000
H    -3.524000000     1.650000000     0.784000000
O     1.716000000    -4.320000000     2.586000000
H     1.080000000    -3.982000000     1.956000000
H     2.559000000    -3.986000000     2.280000000
O    -1.233000000     0.126000000    -4.361000000
H    -0.985000000    -0.782000000    -4.184000000
H    -1.631000000     0.100000000    -5.231000000
O     2.121000000    -3.967000000    -4.598000000
H     2.428000000    -4.692000000    -4.053000000
H     1.822000000    -4.383000000    -5.406000000
