161
-3036.76934
C    -1.181000000    -0.993000000     0.195000000
H    -2.035000000    -1.659000000     0.286000000
C    -1.252000000     0.402000000    -0.088000000
H    -2.204000000     0.923000000    -0.035000000
C    -0.116000000     1.167000000    -0.359000000
C    -0.270000000     2.642000000    -0.633000000
H    -0.496000000     3.140000000     0.312000000
H     0.636000000     3.069000000    -1.069000000
H    -1.104000000     2.855000000    -1.304000000
C     1.172000000     0.650000000    -0.262000000
H     2.055000000     1.270000000    -0.394000000
C     1.247000000    -0.725000000     0.077000000
H     2.223000000    -1.202000000     0.125000000
C     0.130000000    -1.484000000     0.367000000
C     0.342000000    -2.959000000     0.799000000
O     1.486000000    -3.411000000     1.043000000
O    -0.634000000    -3.681000000     0.946000000
O    -3.207000000    -7.761000000     0.491000000
H    -3.928000000    -7.824000000     1.116000000
H    -2.473000000    -7.425000000     1.006000000
O     1.744000000    -8.433000000     2.319000000
H     2.312000000    -8.107000000     3.017000000
H     1.552000000    -7.661000000     1.787000000
O    -1.801000000    -5.402000000     4.844000000
H    -2.093000000    -4.817000000     5.543000000
H    -2.113000000    -4.989000000     4.039000000
O    -3.600000000     3.324000000     0.244000000
H    -3.315000000     4.082000000     0.754000000
H    -3.986000000     2.732000000     0.889000000
O    -2.770000000     2.895000000    -4.049000000
H    -2.060000000     3.332000000    -3.578000000
H    -3.476000000     2.825000000    -3.407000000
O     2.549000000     5.403000000    -0.016000000
H     3.237000000     4.740000000    -0.057000000
H     3.000000000     6.228000000    -0.196000000
O    -3.902000000     1.906000000     2.613000000
H    -4.124000000     1.117000000     3.107000000
H    -3.732000000     2.568000000     3.284000000
O    -3.047000000    -3.090000000    -1.690000000
H    -3.591000000    -3.482000000    -1.007000000
H    -2.178000000    -3.467000000    -1.551000000
O     4.382000000    -3.317000000     2.650000000
H     4.762000000    -3.719000000     3.431000000
H     3.574000000    -3.805000000     2.498000000
O    -6.031000000    -2.354000000     0.012000000
H    -5.654000000    -3.233000000    -0.037000000
H    -6.844000000    -2.469000000     0.505000000
O     0.039000000    -7.443000000    -0.819000000
H    -0.212000000    -8.199000000    -0.288000000
H     0.754000000    -7.763000000    -1.369000000
O     0.802000000     6.566000000     3.286000000
H    -0.023000000     6.628000000     3.768000000
H     0.839000000     5.656000000     2.992000000
O    -2.780000000    -3.504000000     3.066000000
H    -3.358000000    -2.778000000     2.834000000
H    -1.985000000    -3.350000000     2.556000000
O    -4.250000000    -5.938000000     2.586000000
H    -3.425000000    -5.455000000     2.553000000
H    -4.675000000    -5.633000000     3.387000000
O    -1.273000000    -6.210000000     1.893000000
H    -1.246000000    -5.604000000     1.153000000
H    -0.493000000    -5.997000000     2.405000000
O    -0.846000000     0.801000000     3.009000000
H    -1.459000000     1.441000000     2.647000000
H    -0.949000000     0.029000000     2.453000000
O     0.700000000    -3.621000000    -3.640000000
H     0.059000000    -4.012000000    -4.234000000
H     0.455000000    -3.950000000    -2.775000000
O     4.061000000     2.895000000    -0.377000000
H     3.870000000     1.965000000    -0.496000000
H     4.817000000     2.913000000     0.209000000
O     4.356000000     3.807000000    -3.172000000
H     3.969000000     3.721000000    -2.301000000
H     4.553000000     4.740000000    -3.256000000
O     1.946000000     3.278000000    -5.621000000
H     1.171000000     3.807000000    -5.809000000
H     2.418000000     3.774000000    -4.952000000
O    -4.095000000     6.334000000    -1.221000000
H    -4.649000000     6.998000000    -0.811000000
H    -4.427000000     5.503000000    -0.880000000
O    -4.753000000    -1.445000000     2.418000000
H    -5.276000000    -1.377000000     3.217000000
H    -5.330000000    -1.879000000     1.790000000
O    -4.520000000     2.472000000    -2.088000000
H    -3.954000000     2.820000000    -1.399000000
H    -4.790000000     1.612000000    -1.765000000
O    -4.893000000    -5.071000000     0.210000000
H    -4.460000000    -5.456000000     0.972000000
H    -4.989000000    -5.798000000    -0.404000000
O    -0.874000000     3.954000000     2.917000000
H    -1.062000000     4.217000000     3.818000000
H     0.061000000     3.747000000     2.918000000
O     4.786000000     0.178000000    -0.421000000
H     5.679000000     0.085000000    -0.753000000
H     4.799000000    -0.267000000     0.426000000
O    -3.786000000    -5.533000000    -3.050000000
H    -4.630000000    -5.098000000    -3.168000000
H    -3.263000000    -4.908000000    -2.547000000
O     3.495000000    -0.825000000     2.462000000
H     4.191000000    -0.329000000     2.894000000
H     3.850000000    -1.709000000     2.374000000
O     4.677000000    -0.362000000    -3.467000000
H     4.682000000    -0.303000000    -2.512000000
H     3.846000000     0.037000000    -3.727000000
O     2.701000000    -4.961000000     4.583000000
H     3.467000000    -4.443000000     4.830000000
H     2.581000000    -5.573000000     5.309000000
O     2.948000000    -0.722000000     5.337000000
H     2.721000000    -0.885000000     4.422000000
H     3.111000000     0.221000000     5.379000000
O     3.649000000    -4.384000000    -0.294000000
H     4.438000000    -3.892000000    -0.069000000
H     2.950000000    -3.954000000     0.198000000
O    -2.624000000     5.313000000     1.562000000
H    -2.256000000     6.195000000     1.517000000
H    -1.908000000     4.771000000     1.892000000
O     4.577000000    -5.615000000    -2.422000000
H     4.832000000    -4.955000000    -3.067000000
H     4.121000000    -5.120000000    -1.741000000
O    -1.146000000    -5.060000000    -1.217000000
H    -0.930000000    -4.395000000    -0.564000000
H    -0.613000000    -5.817000000    -0.974000000
O     0.127000000     6.395000000    -0.897000000
H     0.895000000     6.028000000    -0.458000000
H    -0.364000000     6.827000000    -0.198000000
O     1.061000000     5.796000000    -3.888000000
H     0.849000000     5.771000000    -2.955000000
H     1.172000000     6.727000000    -4.083000000
O     2.213000000     0.578000000    -4.701000000
H     1.388000000     0.450000000    -4.232000000
H     2.051000000     1.330000000    -5.270000000
O    -1.451000000    -1.666000000     4.962000000
H    -0.563000000    -1.489000000     4.651000000
H    -1.629000000    -2.562000000     4.677000000
O    -2.022000000     5.680000000    -2.749000000
H    -2.806000000     5.878000000    -2.236000000
H    -1.320000000     6.157000000    -2.308000000
O    -0.224000000    -0.520000000    -3.233000000
H    -0.206000000    -0.164000000    -2.345000000
H    -0.095000000    -1.461000000    -3.116000000
O     6.216000000    -2.404000000     0.962000000
H     6.503000000    -1.543000000     1.266000000
H     5.580000000    -2.689000000     1.617000000
O     0.900000000    -2.537000000     4.067000000
H     1.068000000    -2.572000000     3.126000000
H     1.414000000    -3.259000000     4.429000000
O     1.729000000     4.082000000     2.600000000
H     2.071000000     3.192000000     2.689000000
H     2.069000000     4.385000000     1.758000000
O     2.133000000     1.532000000     3.012000000
H     2.792000000     0.986000000     2.585000000
H     1.351000000     0.982000000     3.046000000
O     4.620000000    -6.517000000     1.154000000
H     4.332000000    -7.213000000     0.564000000
H     4.169000000    -5.734000000     0.838000000
O     1.792000000    -5.720000000     2.020000000
H     1.409000000    -4.898000000     1.712000000
H     2.025000000    -5.547000000     2.932000000
O    -4.948000000    -0.155000000    -1.377000000
H    -4.377000000    -0.778000000    -1.827000000
H    -5.323000000    -0.653000000    -0.651000000
