161
-3040.72414
C     0.040000000    -1.311000000     0.651000000
H    -0.222000000    -2.283000000     1.062000000
C    -1.063000000    -0.486000000     0.482000000
H    -2.009000000    -0.778000000     0.933000000
C    -0.931000000     0.700000000    -0.185000000
C    -2.175000000     1.545000000    -0.345000000
H    -2.138000000     2.633000000    -0.260000000
H    -2.447000000     1.452000000    -1.399000000
H    -2.944000000     1.206000000     0.353000000
C     0.308000000     1.230000000    -0.526000000
H     0.308000000     2.272000000    -0.837000000
C     1.489000000     0.412000000    -0.344000000
H     2.444000000     0.727000000    -0.756000000
C     1.311000000    -0.870000000     0.239000000
C     2.402000000    -1.872000000     0.309000000
O     3.338000000    -1.669000000    -0.381000000
O     2.295000000    -2.907000000     0.998000000
O     1.321000000    -4.755000000    -0.484000000
H     1.800000000    -5.549000000    -0.242000000
H     1.700000000    -4.070000000     0.067000000
O    -5.952000000     1.946000000     1.262000000
H    -5.574000000     2.266000000     0.443000000
H    -5.694000000     1.025000000     1.301000000
O     3.417000000    -4.947000000     2.308000000
H     3.282000000    -4.085000000     1.916000000
H     2.625000000    -5.438000000     2.088000000
O    -1.769000000    -0.108000000     3.762000000
H    -2.428000000    -0.748000000     3.492000000
H    -1.578000000    -0.332000000     4.673000000
O    -1.038000000     6.067000000    -3.303000000
H    -0.492000000     5.343000000    -3.610000000
H    -1.913000000     5.687000000    -3.217000000
O     3.857000000     0.534000000     3.049000000
H     3.847000000     1.143000000     3.788000000
H     2.937000000     0.446000000     2.800000000
O     1.734000000    -4.686000000    -3.618000000
H     2.637000000    -4.400000000    -3.477000000
H     1.589000000    -5.358000000    -2.952000000
O    -4.347000000    -0.086000000    -3.807000000
H    -3.895000000    -0.912000000    -3.633000000
H    -5.107000000    -0.102000000    -3.224000000
O    -4.023000000     2.575000000    -3.410000000
H    -4.079000000     1.621000000    -3.372000000
H    -3.546000000     2.756000000    -4.220000000
O     4.556000000    -5.754000000    -2.168000000
H     4.826000000    -5.405000000    -1.318000000
H     3.713000000    -6.173000000    -1.998000000
O    -0.909000000    -3.534000000    -1.520000000
H    -0.995000000    -4.044000000    -2.326000000
H    -0.137000000    -3.899000000    -1.087000000
O     0.079000000    -3.290000000     3.771000000
H    -0.639000000    -3.723000000     3.309000000
H     0.703000000    -3.061000000     3.083000000
O     1.625000000     4.032000000    -3.899000000
H     1.811000000     3.103000000    -4.036000000
H     2.077000000     4.250000000    -3.084000000
O    -4.014000000    -1.862000000     3.013000000
H    -3.484000000    -2.648000000     3.144000000
H    -4.310000000    -1.623000000     3.891000000
O     1.827000000    -7.157000000     0.858000000
H     2.581000000    -7.484000000     1.348000000
H     1.627000000    -7.854000000     0.234000000
O     2.895000000     5.078000000    -1.826000000
H     2.766000000     4.831000000    -0.910000000
H     3.830000000     4.946000000    -1.981000000
O     0.703000000    -1.591000000    -4.460000000
H     1.323000000    -1.974000000    -5.081000000
H     1.183000000    -1.561000000    -3.632000000
O     3.059000000     0.933000000    -6.331000000
H     3.895000000     1.389000000    -6.423000000
H     2.800000000     1.089000000    -5.423000000
O    -4.712000000     3.365000000    -0.899000000
H    -4.502000000     3.088000000    -1.791000000
H    -3.948000000     3.870000000    -0.619000000
O    -3.659000000     5.278000000    -3.683000000
H    -4.032000000     4.442000000    -3.402000000
H    -3.886000000     5.889000000    -2.982000000
O    -0.492000000     4.278000000     2.626000000
H     0.017000000     4.300000000     3.436000000
H    -1.128000000     3.576000000     2.762000000
O    -0.360000000     5.875000000     0.437000000
H    -0.410000000     6.099000000     1.366000000
H    -0.351000000     4.918000000     0.421000000
O    -5.378000000    -0.662000000     0.900000000
H    -5.268000000    -1.283000000     0.180000000
H    -4.855000000    -1.028000000     1.613000000
O     4.600000000     1.979000000     0.735000000
H     5.101000000     2.619000000     1.240000000
H     4.497000000     1.234000000     1.328000000
O     7.052000000    -0.622000000     0.755000000
H     7.834000000    -1.173000000     0.746000000
H     6.391000000    -1.151000000     1.202000000
O     4.817000000    -1.939000000     2.117000000
H     4.458000000    -1.298000000     2.731000000
H     4.065000000    -2.217000000     1.594000000
O     5.692000000    -2.959000000    -1.398000000
H     5.013000000    -2.362000000    -1.084000000
H     5.739000000    -3.643000000    -0.729000000
O    -4.981000000     3.776000000     2.997000000
H    -4.066000000     3.528000000     3.130000000
H    -5.255000000     3.277000000     2.227000000
O     1.632000000    -1.383000000     5.289000000
H     2.431000000    -1.861000000     5.509000000
H     1.081000000    -2.028000000     4.846000000
O     5.940000000    -0.141000000    -1.987000000
H     5.944000000    -0.132000000    -1.030000000
H     5.543000000     0.694000000    -2.233000000
O    -5.217000000     6.731000000     1.642000000
H    -5.661000000     7.370000000     1.083000000
H    -4.591000000     6.299000000     1.061000000
O    -7.661000000     3.789000000    -1.153000000
H    -6.740000000     3.660000000    -0.927000000
H    -7.849000000     4.689000000    -0.887000000
O     3.210000000    -1.587000000    -3.038000000
H     3.114000000    -1.636000000    -2.086000000
H     4.146000000    -1.440000000    -3.176000000
O    -0.807000000    -6.658000000     1.481000000
H     0.124000000    -6.802000000     1.313000000
H    -1.063000000    -7.386000000     2.048000000
O     5.846000000    -1.167000000    -4.778000000
H     6.783000000    -1.342000000    -4.872000000
H     5.738000000    -0.929000000    -3.857000000
O     0.849000000     0.583000000     3.450000000
H    -0.094000000     0.483000000     3.322000000
H     1.108000000    -0.196000000     3.942000000
O    -0.996000000    -3.824000000     6.264000000
H    -0.712000000    -3.534000000     5.397000000
H    -0.278000000    -4.371000000     6.581000000
O     2.805000000     1.327000000    -3.782000000
H     3.453000000     1.572000000    -3.122000000
H     2.638000000     0.399000000    -3.621000000
O    -2.499000000     2.605000000     3.697000000
H    -2.464000000     1.650000000     3.640000000
H    -2.207000000     2.803000000     4.586000000
O     4.782000000     2.436000000    -2.091000000
H     5.175000000     3.283000000    -2.303000000
H     4.876000000     2.360000000    -1.142000000
O     2.385000000     3.801000000     0.615000000
H     3.179000000     3.270000000     0.672000000
H     1.677000000     3.200000000     0.849000000
O     5.457000000    -5.157000000     0.515000000
H     4.794000000    -4.798000000     1.104000000
H     5.988000000    -5.727000000     1.071000000
O    -5.180000000    -2.371000000    -1.274000000
H    -6.050000000    -2.004000000    -1.434000000
H    -4.722000000    -2.272000000    -2.109000000
O     5.600000000    -4.099000000     4.083000000
H     4.932000000    -4.606000000     3.621000000
H     5.837000000    -3.401000000     3.472000000
O    -2.171000000    -4.441000000     2.369000000
H    -1.738000000    -5.272000000     2.171000000
H    -2.784000000    -4.312000000     1.646000000
O    -3.228000000    -4.282000000    -0.120000000
H    -2.332000000    -4.027000000    -0.341000000
H    -3.777000000    -3.762000000    -0.706000000
O    -3.179000000     5.552000000    -0.180000000
H    -2.314000000     5.949000000    -0.074000000
H    -3.643000000     6.143000000    -0.773000000
O    -2.352000000    -1.871000000    -3.230000000
H    -2.280000000    -2.696000000    -3.711000000
H    -1.905000000    -2.038000000    -2.401000000
