161
-3043.37138
C    -1.192000000    -0.447000000     0.819000000
H    -2.069000000    -0.740000000     1.390000000
C    -0.951000000     0.813000000     0.439000000
H    -1.746000000     1.538000000     0.594000000
C     0.143000000     1.141000000    -0.352000000
C     0.284000000     2.526000000    -0.861000000
H     1.325000000     2.761000000    -1.095000000
H    -0.269000000     2.552000000    -1.802000000
H    -0.125000000     3.280000000    -0.185000000
C     1.109000000     0.233000000    -0.654000000
H     1.958000000     0.563000000    -1.246000000
C     0.989000000    -1.110000000    -0.226000000
H     1.823000000    -1.783000000    -0.409000000
C    -0.207000000    -1.409000000     0.432000000
C    -0.361000000    -2.915000000     0.882000000
O     0.347000000    -3.809000000     0.419000000
O    -1.050000000    -3.198000000     1.848000000
O     2.535000000    -4.012000000    -1.253000000
H     2.831000000    -4.920000000    -1.201000000
H     1.869000000    -3.938000000    -0.569000000
O    -2.569000000     2.412000000     3.749000000
H    -3.095000000     1.629000000     3.587000000
H    -3.208000000     3.121000000     3.812000000
O     5.082000000    -0.415000000     1.618000000
H     5.112000000    -1.192000000     1.060000000
H     4.466000000     0.172000000     1.179000000
O    -3.143000000    -3.941000000     5.860000000
H    -2.791000000    -3.652000000     6.702000000
H    -3.920000000    -3.399000000     5.726000000
O     0.953000000     0.977000000     2.664000000
H     1.842000000     1.318000000     2.568000000
H     0.637000000     0.876000000     1.766000000
O     2.214000000    -2.788000000    -3.682000000
H     2.703000000    -3.384000000    -4.250000000
H     2.268000000    -3.187000000    -2.813000000
O     2.615000000    -6.719000000    -0.419000000
H     1.884000000    -6.954000000    -0.990000000
H     2.304000000    -6.919000000     0.463000000
O    -3.003000000    -1.612000000    -1.596000000
H    -2.366000000    -0.897000000    -1.584000000
H    -3.712000000    -1.312000000    -1.028000000
O    -1.616000000     4.894000000    -4.261000000
H    -1.260000000     4.081000000    -3.903000000
H    -1.809000000     4.689000000    -5.176000000
O    -1.528000000     0.428000000    -3.101000000
H    -1.323000000     0.979000000    -3.856000000
H    -0.732000000     0.443000000    -2.569000000
O    -0.610000000     4.636000000     3.034000000
H    -1.126000000     3.855000000     3.235000000
H    -1.102000000     5.356000000     3.428000000
O     0.097000000     2.127000000    -4.699000000
H    -0.120000000     1.699000000    -5.527000000
H     0.569000000     2.920000000    -4.955000000
O    -3.150000000    -5.754000000    -0.275000000
H    -3.371000000    -6.451000000    -0.894000000
H    -3.938000000    -5.651000000     0.259000000
O     2.243000000    -3.986000000     2.393000000
H     1.470000000    -3.952000000     1.829000000
H     2.865000000    -4.533000000     1.914000000
O    -0.825000000    -6.198000000    -4.007000000
H    -0.941000000    -5.758000000    -3.165000000
H    -0.458000000    -7.053000000    -3.782000000
O    -1.243000000    -0.383000000     3.920000000
H    -1.179000000    -1.125000000     3.319000000
H    -0.783000000     0.328000000     3.472000000
O    -0.969000000    -4.837000000    -1.621000000
H    -1.722000000    -5.100000000    -1.092000000
H    -0.369000000    -4.428000000    -0.997000000
O    -3.286000000    -6.334000000     4.229000000
H    -3.143000000    -5.600000000     4.827000000
H    -2.578000000    -6.262000000     3.589000000
O    -4.420000000     2.350000000    -1.630000000
H    -4.654000000     2.343000000    -0.702000000
H    -4.096000000     3.236000000    -1.789000000
O    -5.537000000    -3.170000000     4.302000000
H    -4.870000000    -2.977000000     3.644000000
H    -6.114000000    -3.806000000     3.879000000
O    -5.498000000     2.317000000     3.385000000
H    -5.037000000     1.519000000     3.123000000
H    -5.641000000     2.213000000     4.326000000
O    -4.094000000     0.189000000     2.890000000
H    -3.531000000    -0.531000000     3.174000000
H    -4.366000000    -0.054000000     2.005000000
O     2.984000000     1.538000000    -3.830000000
H     2.038000000     1.419000000    -3.918000000
H     3.092000000     2.474000000    -3.658000000
O    -3.539000000    -2.557000000     2.394000000
H    -2.631000000    -2.837000000     2.283000000
H    -3.875000000    -2.473000000     1.501000000
O     3.296000000     2.166000000     0.673000000
H     3.302000000     2.475000000     1.578000000
H     2.730000000     2.786000000     0.212000000
O     5.338000000     1.730000000    -1.499000000
H     4.548000000     1.880000000    -0.979000000
H     5.012000000     1.444000000    -2.353000000
O     3.788000000    -0.547000000    -4.973000000
H     3.678000000     0.324000000    -4.592000000
H     3.317000000    -1.130000000    -4.377000000
O    -3.015000000    -0.220000000     6.049000000
H    -2.426000000    -0.238000000     6.804000000
H    -2.452000000     0.018000000     5.312000000
O    -1.688000000    -3.258000000    -3.504000000
H    -1.320000000    -3.824000000    -2.825000000
H    -2.381000000    -2.770000000    -3.059000000
O    -5.761000000     3.156000000     0.619000000
H    -6.701000000     3.104000000     0.443000000
H    -5.662000000     2.794000000     1.499000000
O    -3.412000000     4.803000000    -2.319000000
H    -3.931000000     5.515000000    -1.945000000
H    -2.820000000     5.235000000    -2.935000000
O    -4.285000000     0.704000000    -3.611000000
H    -4.418000000     1.321000000    -2.891000000
H    -3.384000000     0.399000000    -3.501000000
O     5.050000000    -2.825000000    -0.257000000
H     4.343000000    -3.140000000    -0.820000000
H     5.662000000    -3.559000000    -0.207000000
O     1.300000000    -0.495000000     5.558000000
H     0.797000000     0.085000000     4.986000000
H     0.991000000    -1.374000000     5.340000000
O     1.356000000     4.590000000    -4.710000000
H     1.987000000     4.931000000    -5.344000000
H     0.809000000     5.343000000    -4.488000000
O    -0.670000000     2.553000000     5.729000000
H    -1.437000000     2.390000000     5.181000000
H    -0.810000000     3.431000000     6.084000000
O     3.377000000     4.212000000    -2.853000000
H     3.841000000     5.042000000    -2.742000000
H     2.537000000     4.457000000    -3.240000000
O    -1.166000000    -8.262000000    -0.798000000
H    -1.382000000    -8.956000000    -0.176000000
H    -0.695000000    -7.611000000    -0.277000000
O     4.150000000     5.686000000     1.564000000
H     4.735000000     5.278000000     2.203000000
H     3.279000000     5.361000000     1.796000000
O    -5.869000000    -2.535000000    -0.585000000
H    -5.819000000    -3.459000000    -0.832000000
H    -6.798000000    -2.382000000    -0.415000000
O     1.978000000     3.867000000     2.331000000
H     1.920000000     3.383000000     3.155000000
H     1.135000000     4.313000000     2.254000000
O     0.397000000    -2.990000000     4.538000000
H     0.645000000    -3.065000000     3.617000000
H    -0.427000000    -3.471000000     4.604000000
O     0.729000000    -7.102000000     2.070000000
H     0.617000000    -7.814000000     2.700000000
H     0.155000000    -6.406000000     2.390000000
O    -1.577000000    -5.656000000     2.210000000
H    -1.320000000    -4.763000000     1.983000000
H    -1.917000000    -6.023000000     1.394000000
O    -4.533000000     5.649000000     0.487000000
H    -5.248000000     5.968000000    -0.062000000
H    -4.767000000     4.741000000     0.681000000
O    -4.687000000    -0.286000000     0.293000000
H    -4.652000000     0.223000000    -0.517000000
H    -5.219000000    -1.051000000     0.072000000
O    -0.059000000    -1.502000000    -5.198000000
H     0.812000000    -1.600000000    -4.815000000
H    -0.660000000    -1.658000000    -4.469000000
O     4.781000000    -5.805000000     1.292000000
H     4.304000000    -6.361000000     0.676000000
H     5.619000000    -5.635000000     0.861000000
