161
-3065.53390
C     0.217000000    -0.944000000    -1.127000000
H     0.252000000    -1.763000000    -1.840000000
C    -0.808000000    -0.963000000    -0.161000000
H    -1.495000000    -1.803000000    -0.091000000
C    -0.990000000     0.033000000     0.836000000
C    -1.950000000    -0.077000000     1.966000000
H    -1.492000000     0.164000000     2.928000000
H    -2.837000000     0.550000000     1.855000000
H    -2.213000000    -1.137000000     2.009000000
C    -0.004000000     1.046000000     0.842000000
H    -0.053000000     1.802000000     1.622000000
C     1.010000000     1.054000000    -0.130000000
H     1.753000000     1.846000000    -0.179000000
C     1.117000000     0.064000000    -1.105000000
C     2.206000000     0.068000000    -2.192000000
O     2.918000000     0.984000000    -2.336000000
O     2.366000000    -0.929000000    -2.892000000
O    -4.330000000    -0.962000000     5.168000000
H    -4.640000000    -1.471000000     5.916000000
H    -3.393000000    -1.152000000     5.121000000
O    -2.401000000     5.182000000     4.250000000
H    -1.552000000     5.285000000     3.819000000
H    -2.187000000     4.869000000     5.129000000
O    -2.881000000    -4.466000000    -2.197000000
H    -2.966000000    -3.804000000    -2.883000000
H    -3.398000000    -4.123000000    -1.468000000
O     1.496000000     0.284000000     3.775000000
H     1.494000000     0.064000000     2.843000000
H     2.423000000     0.314000000     4.012000000
O    -2.859000000     0.134000000    -4.444000000
H    -3.664000000     0.566000000    -4.729000000
H    -2.620000000     0.585000000    -3.634000000
O     1.878000000    -2.931000000    -4.482000000
H     1.791000000    -2.142000000    -3.947000000
H     1.089000000    -3.439000000    -4.289000000
O     5.915000000    -3.662000000    -2.042000000
H     5.014000000    -3.468000000    -1.785000000
H     6.264000000    -4.182000000    -1.319000000
O    -5.373000000    -2.413000000     2.974000000
H    -5.127000000    -3.254000000     3.360000000
H    -4.979000000    -1.760000000     3.552000000
O     6.872000000     1.822000000    -2.979000000
H     7.322000000     1.650000000    -2.152000000
H     6.032000000     2.200000000    -2.720000000
O     4.523000000    -2.732000000    -5.176000000
H     3.572000000    -2.650000000    -5.244000000
H     4.745000000    -2.283000000    -4.360000000
O     4.338000000     2.942000000    -5.072000000
H     4.225000000     2.901000000    -4.122000000
H     4.106000000     2.066000000    -5.379000000
O     5.831000000    -0.094000000    -5.678000000
H     5.843000000    -0.244000000    -4.733000000
H     4.902000000    -0.050000000    -5.902000000
O     5.394000000     4.850000000     0.087000000
H     6.127000000     5.218000000    -0.407000000
H     5.182000000     4.036000000    -0.370000000
O    -1.792000000    -2.490000000    -4.179000000
H    -1.772000000    -1.540000000    -4.293000000
H    -2.305000000    -2.810000000    -4.921000000
O    -0.136000000    -4.287000000    -3.049000000
H    -0.796000000    -3.699000000    -3.416000000
H    -0.553000000    -4.662000000    -2.274000000
O    -0.406000000     0.802000000     5.563000000
H     0.157000000     0.674000000     4.800000000
H    -1.159000000     0.233000000     5.404000000
O     4.326000000    -2.825000000     1.052000000
H     4.051000000    -2.849000000     0.135000000
H     4.356000000    -3.744000000     1.317000000
O     3.070000000     0.453000000    -5.332000000
H     2.207000000     0.814000000    -5.535000000
H     2.929000000    -0.081000000    -4.550000000
O    -1.563000000    -4.757000000     4.180000000
H    -1.240000000    -4.487000000     5.040000000
H    -0.821000000    -5.208000000     3.777000000
O     2.454000000    -5.785000000    -2.827000000
H     2.000000000    -5.233000000    -2.190000000
H     2.496000000    -5.251000000    -3.620000000
O     0.929000000    -4.137000000     0.184000000
H     1.377000000    -4.118000000     1.030000000
H     0.022000000    -3.910000000     0.389000000
O    -0.412000000     5.651000000    -1.059000000
H     0.433000000     5.637000000    -0.610000000
H    -0.849000000     6.433000000    -0.723000000
O    -6.790000000     0.001000000     0.611000000
H    -6.551000000     0.526000000     1.375000000
H    -7.287000000    -0.734000000     0.971000000
O    -4.201000000    -5.005000000     3.641000000
H    -3.264000000    -4.817000000     3.703000000
H    -4.501000000    -5.028000000     4.549000000
O    -6.906000000     2.136000000     2.828000000
H    -6.466000000     1.868000000     3.635000000
H    -7.796000000     2.358000000     3.103000000
O     1.970000000     3.234000000     2.660000000
H     1.797000000     2.297000000     2.753000000
H     2.823000000     3.362000000     3.074000000
O    -2.056000000     3.805000000    -0.218000000
H    -1.419000000     4.515000000    -0.305000000
H    -2.591000000     4.055000000     0.535000000
O    -1.503000000     2.956000000    -4.007000000
H    -1.837000000     2.493000000    -3.239000000
H    -1.765000000     3.866000000    -3.870000000
O    -5.847000000     1.087000000     5.281000000
H    -5.457000000     0.309000000     4.881000000
H    -6.567000000     0.747000000     5.813000000
O    -2.118000000     1.381000000    -1.853000000
H    -1.761000000     0.588000000    -1.452000000
H    -2.144000000     2.019000000    -1.140000000
O     5.102000000    -0.542000000    -2.887000000
H     5.654000000     0.148000000    -2.520000000
H     4.215000000    -0.186000000    -2.850000000
O    -3.894000000    -2.918000000     0.642000000
H    -4.254000000    -2.761000000     1.515000000
H    -4.513000000    -2.493000000     0.048000000
O     4.706000000     0.157000000     2.264000000
H     4.628000000    -0.423000000     1.507000000
H     5.091000000    -0.392000000     2.947000000
O    -4.902000000     0.798000000    -2.379000000
H    -4.030000000     1.026000000    -2.056000000
H    -5.268000000     1.627000000    -2.687000000
O     1.811000000    -1.337000000     1.539000000
H     1.496000000    -1.204000000     0.645000000
H     2.587000000    -1.889000000     1.440000000
O    -1.776000000    -1.833000000     5.280000000
H    -1.529000000    -2.497000000     5.924000000
H    -1.145000000    -1.943000000     4.568000000
O    -1.192000000     3.453000000     6.310000000
H    -1.047000000     2.612000000     5.876000000
H    -1.785000000     3.249000000     7.033000000
O     0.198000000     5.318000000     3.410000000
H     0.617000000     4.508000000     3.118000000
H     0.849000000     5.998000000     3.241000000
O     2.936000000     5.145000000    -2.680000000
H     2.255000000     4.520000000    -2.931000000
H     2.464000000     5.846000000    -2.231000000
O    -0.092000000    -2.407000000     3.398000000
H    -0.541000000    -3.017000000     2.812000000
H     0.436000000    -1.861000000     2.815000000
O    -3.820000000     3.781000000     2.441000000
H    -3.195000000     4.218000000     3.020000000
H    -4.235000000     3.118000000     2.993000000
O     1.344000000     3.037000000    -3.240000000
H     1.934000000     2.525000000    -2.687000000
H     0.845000000     2.381000000    -3.728000000
O     3.094000000    -3.018000000    -1.396000000
H     2.806000000    -2.429000000    -2.092000000
H     2.288000000    -3.426000000    -1.078000000
O     1.807000000     5.413000000     0.497000000
H     2.647000000     5.857000000     0.617000000
H     1.821000000     4.699000000     1.135000000
O     0.521000000     1.587000000    -5.904000000
H     0.327000000     1.833000000    -6.808000000
H    -0.131000000     2.055000000    -5.382000000
O    -5.536000000    -1.604000000    -1.088000000
H    -6.051000000    -1.178000000    -0.403000000
H    -5.463000000    -0.945000000    -1.779000000
O     4.576000000     2.841000000    -2.057000000
H     3.971000000     3.582000000    -2.038000000
H     4.015000000     2.071000000    -1.969000000
O    -1.586000000    -4.002000000     1.342000000
H    -2.000000000    -4.698000000     1.852000000
H    -2.317000000    -3.488000000     1.000000000
