161
-3063.36092
C     1.048000000    -0.931000000     0.333000000
H     1.881000000    -1.613000000     0.478000000
C     0.736000000    -0.605000000    -0.943000000
H     1.326000000    -0.883000000    -1.813000000
C    -0.377000000     0.262000000    -1.129000000
C    -0.750000000     0.871000000    -2.514000000
H    -1.550000000     1.611000000    -2.586000000
H     0.074000000     1.413000000    -2.983000000
H    -0.955000000     0.042000000    -3.195000000
C    -1.071000000     0.732000000     0.041000000
H    -1.883000000     1.442000000    -0.099000000
C    -0.722000000     0.315000000     1.353000000
H    -1.229000000     0.701000000     2.234000000
C     0.394000000    -0.510000000     1.450000000
C     0.936000000    -0.847000000     2.754000000
O     0.526000000    -0.142000000     3.673000000
O     1.614000000    -1.863000000     2.945000000
O    -1.652000000     0.642000000     5.196000000
H    -0.909000000     0.080000000     4.978000000
H    -1.385000000     1.515000000     4.910000000
O     2.603000000     5.243000000    -0.398000000
H     1.811000000     5.128000000     0.128000000
H     2.624000000     4.476000000    -0.970000000
O     0.431000000     2.200000000    -6.477000000
H    -0.474000000     2.480000000    -6.340000000
H     0.958000000     2.949000000    -6.196000000
O     3.917000000    -0.742000000     4.392000000
H     3.179000000    -1.087000000     3.890000000
H     3.825000000    -1.140000000     5.258000000
O    -4.437000000     4.537000000    -3.847000000
H    -4.743000000     3.637000000    -3.953000000
H    -5.167000000     5.076000000    -4.152000000
O     2.000000000     2.655000000     6.985000000
H     2.166000000     3.055000000     7.838000000
H     1.371000000     1.956000000     7.166000000
O    -4.491000000     1.229000000    -0.560000000
H    -4.005000000     2.014000000    -0.811000000
H    -5.172000000     1.547000000     0.032000000
O    -2.814000000     0.166000000    -6.048000000
H    -1.961000000    -0.182000000    -6.308000000
H    -3.434000000    -0.530000000    -6.266000000
O    -1.007000000    -4.555000000     1.023000000
H    -1.252000000    -4.339000000     0.123000000
H    -1.387000000    -3.852000000     1.550000000
O     2.274000000     2.823000000    -2.179000000
H     2.075000000     2.343000000    -2.983000000
H     3.116000000     2.470000000    -1.891000000
O    -0.385000000     1.390000000     7.882000000
H    -0.641000000     1.159000000     8.775000000
H    -0.357000000     0.554000000     7.417000000
O     1.114000000    -0.969000000     6.137000000
H     1.300000000    -1.907000000     6.171000000
H     1.116000000    -0.758000000     5.204000000
O     1.358000000    -6.358000000     1.170000000
H     1.929000000    -6.021000000     0.479000000
H     0.603000000    -5.770000000     1.165000000
O     1.423000000    -3.612000000     6.957000000
H     1.007000000    -3.874000000     6.136000000
H     0.789000000    -3.851000000     7.633000000
O     4.675000000    -1.351000000    -5.296000000
H     4.039000000    -1.531000000    -4.603000000
H     5.475000000    -1.789000000    -5.007000000
O     2.466000000     3.936000000    -5.264000000
H     3.116000000     3.528000000    -5.836000000
H     2.891000000     4.734000000    -4.950000000
O     5.777000000    -5.009000000     3.029000000
H     6.225000000    -4.373000000     3.587000000
H     4.899000000    -4.647000000     2.911000000
O    -4.432000000     5.116000000     1.604000000
H    -4.028000000     4.320000000     1.259000000
H    -4.893000000     4.828000000     2.392000000
O    -2.546000000    -2.924000000     5.831000000
H    -3.072000000    -3.704000000     6.007000000
H    -2.097000000    -3.119000000     5.008000000
O    -3.159000000    -0.327000000     7.177000000
H    -2.959000000     0.061000000     6.325000000
H    -2.706000000    -1.170000000     7.169000000
O    -0.676000000     4.114000000    -0.435000000
H    -0.614000000     4.640000000     0.362000000
H    -0.104000000     3.364000000    -0.272000000
O     2.581000000    -4.811000000    -0.603000000
H     3.416000000    -4.898000000    -1.063000000
H     1.919000000    -4.980000000    -1.274000000
O    -4.819000000     1.720000000    -3.828000000
H    -4.340000000     1.299000000    -4.542000000
H    -5.104000000     0.996000000    -3.270000000
O     0.638000000    -5.125000000    -2.620000000
H     0.305000000    -5.892000000    -2.154000000
H    -0.080000000    -4.864000000    -3.197000000
O     1.346000000    -2.714000000    -6.346000000
H     1.659000000    -2.837000000    -5.450000000
H     1.638000000    -3.499000000    -6.811000000
O     4.586000000     1.226000000    -2.661000000
H     5.353000000     1.509000000    -2.163000000
H     4.791000000     1.457000000    -3.567000000
O    -1.691000000     3.771000000     6.196000000
H    -1.274000000     3.020000000     6.619000000
H    -1.571000000     3.614000000     5.259000000
O    -3.561000000    -0.888000000     1.207000000
H    -3.801000000    -0.713000000     2.117000000
H    -3.704000000    -0.055000000     0.758000000
O    -2.305000000    -2.592000000    -1.069000000
H    -2.635000000    -2.030000000    -0.369000000
H    -1.352000000    -2.534000000    -0.993000000
O     0.481000000    -3.829000000     4.279000000
H    -0.348000000    -3.749000000     3.807000000
H     1.071000000    -3.222000000     3.833000000
O     3.788000000    -1.446000000    -2.375000000
H     4.011000000    -0.515000000    -2.410000000
H     4.203000000    -1.761000000    -1.572000000
O    -3.727000000    -0.517000000     4.059000000
H    -3.614000000    -1.445000000     4.263000000
H    -3.041000000    -0.077000000     4.560000000
O    -0.268000000     4.003000000    -3.255000000
H    -0.397000000     3.983000000    -2.306000000
H     0.679000000     3.917000000    -3.369000000
O    -1.767000000     3.889000000    -5.610000000
H    -2.713000000     3.801000000    -5.496000000
H    -1.419000000     3.913000000    -4.719000000
O     5.125000000     0.204000000     2.149000000
H     5.735000000    -0.517000000     1.994000000
H     4.616000000    -0.072000000     2.911000000
O    -0.745000000    -1.090000000    -7.148000000
H     0.025000000    -1.658000000    -7.133000000
H    -0.925000000    -0.955000000    -8.078000000
O     3.171000000     1.900000000    -6.922000000
H     3.267000000     1.013000000    -7.270000000
H     2.327000000     1.891000000    -6.472000000
O    -2.012000000    -2.724000000     2.891000000
H    -2.175000000    -1.839000000     2.562000000
H    -2.874000000    -3.141000000     2.890000000
O     2.344000000    -3.320000000    -3.898000000
H     2.633000000    -2.617000000    -3.316000000
H     1.678000000    -3.789000000    -3.394000000
O    -0.737000000     3.095000000     3.752000000
H     0.162000000     2.781000000     3.647000000
H    -0.804000000     3.835000000     3.149000000
O    -3.610000000     3.882000000    -0.940000000
H    -2.716000000     4.213000000    -0.858000000
H    -3.827000000     4.005000000    -1.864000000
O     1.045000000     2.779000000     0.953000000
H     1.948000000     2.474000000     0.867000000
H     0.574000000     2.033000000     1.326000000
O     2.861000000     4.485000000     2.762000000
H     3.018000000     4.342000000     1.829000000
H     2.318000000     3.744000000     3.030000000
O    -4.874000000    -1.131000000    -1.860000000
H    -4.776000000    -0.284000000    -1.426000000
H    -4.004000000    -1.528000000    -1.812000000
O     3.679000000     2.214000000     0.665000000
H     4.378000000     2.773000000     0.324000000
H     4.118000000     1.637000000     1.291000000
O     3.801000000    -3.138000000     2.565000000
H     2.999000000    -2.631000000     2.692000000
H     3.904000000    -3.187000000     1.615000000
O    -1.718000000    -3.636000000    -6.457000000
H    -1.424000000    -2.725000000    -6.478000000
H    -2.615000000    -3.606000000    -6.789000000
O     1.782000000     2.123000000     4.316000000
H     1.910000000     2.317000000     5.245000000
H     1.464000000     1.220000000     4.302000000
