161
-3027.19752
C     0.994000000    -1.053000000    -0.065000000
H     1.718000000    -1.852000000    -0.197000000
C    -0.047000000    -0.822000000    -1.011000000
H    -0.220000000    -1.428000000    -1.897000000
C    -0.913000000     0.197000000    -0.778000000
C    -2.028000000     0.357000000    -1.812000000
H    -1.843000000     0.582000000    -2.865000000
H    -2.688000000    -0.512000000    -1.772000000
H    -2.770000000     1.056000000    -1.421000000
C    -0.784000000     0.939000000     0.390000000
H    -1.629000000     1.593000000     0.593000000
C     0.285000000     0.859000000     1.299000000
H     0.402000000     1.546000000     2.134000000
C     1.252000000    -0.178000000     0.990000000
C     2.434000000    -0.393000000     1.887000000
O     2.469000000     0.241000000     2.921000000
O     3.374000000    -1.132000000     1.610000000
O    -1.229000000    -1.449000000     2.516000000
H    -0.790000000    -0.899000000     1.867000000
H    -1.257000000    -0.911000000     3.307000000
O     1.311000000     3.527000000    -5.438000000
H     1.708000000     2.667000000    -5.300000000
H     0.404000000     3.337000000    -5.675000000
O     2.877000000     5.483000000     1.315000000
H     3.005000000     4.614000000     0.935000000
H     2.795000000     6.065000000     0.559000000
O     3.958000000    -0.307000000    -1.135000000
H     4.463000000     0.444000000    -0.823000000
H     3.871000000    -0.873000000    -0.369000000
O     1.225000000    -3.719000000    -2.568000000
H     1.195000000    -4.543000000    -3.054000000
H     0.406000000    -3.702000000    -2.073000000
O     2.613000000    -3.002000000    -5.363000000
H     3.252000000    -3.565000000    -4.926000000
H     2.643000000    -2.180000000    -4.875000000
O    -4.916000000    -1.829000000    -3.950000000
H    -4.959000000    -0.920000000    -3.655000000
H    -5.056000000    -1.781000000    -4.896000000
O    -0.529000000     1.791000000     6.435000000
H    -1.311000000     2.301000000     6.644000000
H     0.190000000     2.420000000     6.493000000
O     5.008000000     3.124000000     2.972000000
H     4.088000000     3.116000000     3.235000000
H     5.307000000     2.227000000     3.119000000
O    -4.953000000     1.006000000    -6.555000000
H    -5.126000000     0.078000000    -6.714000000
H    -4.032000000     1.122000000    -6.791000000
O     3.443000000     0.814000000     6.804000000
H     3.528000000     0.027000000     6.266000000
H     2.745000000     1.317000000     6.384000000
O     4.984000000     0.514000000    -3.620000000
H     4.708000000     0.008000000    -2.856000000
H     5.317000000     1.335000000    -3.257000000
O    -1.054000000    -4.831000000    -0.962000000
H    -1.004000000    -4.579000000    -0.040000000
H    -1.670000000    -4.208000000    -1.347000000
O     4.717000000    -2.976000000     4.769000000
H     5.159000000    -2.180000000     4.474000000
H     4.571000000    -3.479000000     3.968000000
O     0.036000000    -2.869000000    -6.635000000
H     0.772000000    -3.149000000    -6.091000000
H     0.393000000    -2.167000000    -7.178000000
O     6.402000000     1.636000000     6.084000000
H     5.979000000     1.409000000     5.256000000
H     6.735000000     0.804000000     6.419000000
O    -0.606000000     6.335000000    -0.222000000
H    -0.095000000     7.143000000    -0.169000000
H     0.040000000     5.655000000    -0.413000000
O     2.781000000    -1.241000000     5.309000000
H     3.431000000    -1.936000000     5.202000000
H     2.689000000    -0.862000000     4.435000000
O     5.803000000    -2.112000000     0.876000000
H     5.730000000    -3.062000000     0.783000000
H     4.939000000    -1.835000000     1.181000000
O     1.199000000     5.349000000     3.415000000
H     1.433000000     4.427000000     3.524000000
H     1.754000000     5.654000000     2.697000000
O    -3.604000000     2.424000000    -3.437000000
H    -3.597000000     3.045000000    -4.166000000
H    -2.736000000     2.508000000    -3.042000000
O     1.363000000    -5.282000000     2.437000000
H     1.383000000    -5.071000000     3.371000000
H     1.818000000    -6.121000000     2.371000000
O    -3.317000000     5.729000000    -0.025000000
H    -3.670000000     5.802000000    -0.912000000
H    -2.461000000     6.154000000    -0.073000000
O     4.489000000    -6.542000000     2.403000000
H     4.308000000    -5.634000000     2.161000000
H     4.361000000    -7.036000000     1.593000000
O     5.057000000     0.583000000     3.744000000
H     5.374000000     0.088000000     2.989000000
H     4.112000000     0.432000000     3.751000000
O    -1.649000000    -0.003000000     4.684000000
H    -2.480000000     0.401000000     4.436000000
H    -1.221000000     0.648000000     5.239000000
O    -3.027000000     3.461000000     2.322000000
H    -3.329000000     3.747000000     1.460000000
H    -3.755000000     2.949000000     2.673000000
O    -7.520000000     3.261000000    -1.403000000
H    -7.425000000     3.907000000    -0.703000000
H    -6.809000000     2.639000000    -1.252000000
O     5.543000000     1.645000000    -0.374000000
H     6.348000000     1.474000000     0.115000000
H     5.812000000     2.233000000    -1.079000000
O    -5.379000000     0.702000000    -2.527000000
H    -5.429000000     0.668000000    -1.572000000
H    -4.830000000     1.465000000    -2.711000000
O     6.717000000    -2.537000000    -2.009000000
H     6.441000000    -2.080000000    -1.214000000
H     5.979000000    -3.107000000    -2.226000000
O    -3.820000000    -0.566000000     1.495000000
H    -4.459000000    -1.251000000     1.299000000
H    -2.981000000    -1.025000000     1.535000000
O    -1.389000000     3.762000000    -6.265000000
H    -2.150000000     4.198000000    -5.881000000
H    -1.752000000     2.998000000    -6.713000000
O    -1.073000000    -4.052000000     1.525000000
H    -0.307000000    -4.446000000     1.943000000
H    -1.100000000    -3.159000000     1.866000000
O    -3.318000000    -3.863000000    -2.372000000
H    -4.155000000    -4.299000000    -2.212000000
H    -3.515000000    -3.201000000    -3.034000000
O     2.026000000     1.039000000    -5.131000000
H     1.352000000     0.373000000    -4.999000000
H     2.843000000     0.545000000    -5.193000000
O     4.355000000    -3.760000000    -2.488000000
H     3.410000000    -3.759000000    -2.335000000
H     4.626000000    -4.660000000    -2.308000000
O    -5.827000000     1.255000000     0.062000000
H    -4.960000000     1.010000000     0.387000000
H    -6.389000000     1.231000000     0.836000000
O     7.423000000    -1.475000000     3.825000000
H     7.847000000    -2.271000000     3.503000000
H     7.721000000    -1.395000000     4.731000000
O     7.204000000     0.139000000     1.873000000
H     7.255000000    -0.380000000     2.676000000
H     6.934000000    -0.486000000     1.201000000
O     3.240000000     3.029000000    -0.355000000
H     4.008000000     2.559000000    -0.029000000
H     3.342000000     3.023000000    -1.307000000
O    -6.710000000    -3.569000000    -2.874000000
H    -7.426000000    -3.727000000    -3.490000000
H    -6.182000000    -2.887000000    -3.291000000
O    -4.267000000     0.899000000     4.162000000
H    -4.694000000     0.506000000     4.923000000
H    -4.343000000     0.237000000     3.476000000
O    -2.495000000     5.228000000     4.310000000
H    -2.581000000     4.680000000     3.530000000
H    -1.984000000     5.982000000     4.018000000
O     0.702000000     3.593000000    -0.554000000
H     1.615000000     3.364000000    -0.385000000
H     0.211000000     2.803000000    -0.328000000
O     2.424000000    -1.138000000    -3.186000000
H     2.812000000    -0.776000000    -2.390000000
H     1.795000000    -1.788000000    -2.873000000
O     3.720000000    -3.797000000     2.146000000
H     3.471000000    -2.873000000     2.109000000
H     2.892000000    -4.263000000     2.264000000
O     2.154000000     2.808000000     3.717000000
H     2.113000000     2.499000000     4.622000000
H     2.177000000     2.008000000     3.192000000
