161
-3063.19350
C     0.194000000    -0.219000000     1.482000000
H     0.394000000    -0.376000000     2.539000000
C     1.200000000     0.196000000     0.605000000
H     2.223000000     0.318000000     0.953000000
C     0.926000000     0.272000000    -0.766000000
C     1.942000000     0.829000000    -1.717000000
H     2.964000000     0.518000000    -1.491000000
H     1.725000000     0.599000000    -2.762000000
H     1.917000000     1.920000000    -1.747000000
C    -0.383000000     0.043000000    -1.223000000
H    -0.607000000     0.007000000    -2.286000000
C    -1.368000000    -0.361000000    -0.324000000
H    -2.406000000    -0.415000000    -0.642000000
C    -1.103000000    -0.471000000     1.035000000
C    -2.216000000    -0.827000000     1.890000000
O    -2.978000000    -1.689000000     1.461000000
O    -2.417000000    -0.342000000     2.991000000
O    -2.028000000     2.035000000     3.832000000
H    -2.176000000     1.223000000     3.348000000
H    -1.815000000     1.749000000     4.720000000
O    -7.794000000     0.051000000    -0.163000000
H    -8.496000000     0.265000000     0.451000000
H    -7.273000000    -0.611000000     0.290000000
O     4.873000000     2.583000000    -2.011000000
H     4.206000000     2.548000000    -2.697000000
H     4.650000000     3.360000000    -1.499000000
O     5.698000000    -1.120000000     0.158000000
H     5.338000000    -1.621000000     0.889000000
H     5.233000000    -1.450000000    -0.611000000
O     2.756000000     4.489000000    -3.316000000
H     2.713000000     4.634000000    -2.370000000
H     2.219000000     5.188000000    -3.690000000
O    -5.795000000    -4.679000000     4.676000000
H    -6.375000000    -3.982000000     4.367000000
H    -4.914000000    -4.318000000     4.580000000
O    -4.387000000    -0.628000000    -2.192000000
H    -4.338000000    -1.562000000    -2.395000000
H    -3.693000000    -0.231000000    -2.718000000
O     0.072000000    -1.368000000    -4.646000000
H     1.001000000    -1.144000000    -4.584000000
H     0.063000000    -2.269000000    -4.967000000
O     0.671000000    -2.216000000     7.179000000
H     0.371000000    -2.411000000     6.291000000
H    -0.123000000    -1.962000000     7.649000000
O    -5.539000000     1.524000000    -0.590000000
H    -5.080000000     0.743000000    -0.901000000
H    -6.410000000     1.209000000    -0.350000000
O     3.921000000     5.078000000    -0.569000000
H     3.651000000     5.991000000    -0.672000000
H     3.638000000     4.843000000     0.315000000
O     1.292000000     2.720000000     2.072000000
H     2.151000000     2.975000000     1.737000000
H     1.061000000     1.937000000     1.571000000
O    -5.286000000     1.650000000     2.336000000
H    -5.121000000     2.591000000     2.387000000
H    -5.263000000     1.453000000     1.399000000
O    -5.236000000    -1.186000000     0.345000000
H    -4.551000000    -1.385000000     0.982000000
H    -4.782000000    -1.164000000    -0.497000000
O    -6.924000000    -3.032000000     0.972000000
H    -6.247000000    -2.363000000     0.878000000
H    -7.206000000    -2.963000000     1.884000000
O     5.127000000    -0.357000000    -3.958000000
H     5.697000000     0.269000000    -3.512000000
H     5.062000000    -1.096000000    -3.353000000
O    -3.569000000    -3.478000000     3.507000000
H    -3.459000000    -3.033000000     2.667000000
H    -3.099000000    -2.927000000     4.133000000
O     4.685000000     1.896000000     0.897000000
H     4.740000000     2.208000000    -0.006000000
H     4.959000000     0.980000000     0.850000000
O    -2.878000000    -3.852000000    -0.568000000
H    -2.876000000    -3.148000000     0.080000000
H    -1.953000000    -4.050000000    -0.710000000
O     3.778000000    -3.447000000     5.600000000
H     4.443000000    -2.847000000     5.938000000
H     3.235000000    -2.904000000     5.029000000
O    -3.369000000    -5.661000000     1.910000000
H    -3.459000000    -4.926000000     2.517000000
H    -3.270000000    -5.251000000     1.051000000
O    -5.024000000    -0.696000000     3.569000000
H    -4.093000000    -0.818000000     3.384000000
H    -5.210000000     0.199000000     3.284000000
O    -3.453000000    -1.105000000    -6.606000000
H    -3.941000000    -0.341000000    -6.298000000
H    -2.700000000    -1.161000000    -6.018000000
O    -0.472000000     3.598000000    -0.967000000
H    -0.813000000     2.704000000    -1.004000000
H    -0.838000000     3.961000000    -0.161000000
O     4.143000000    -3.070000000     1.673000000
H     4.519000000    -3.935000000     1.508000000
H     3.370000000    -3.244000000     2.211000000
O    -4.699000000     1.304000000     5.536000000
H    -4.911000000     0.393000000     5.332000000
H    -4.585000000     1.720000000     4.681000000
O    -0.873000000    -3.859000000     5.201000000
H    -1.639000000    -4.379000000     5.444000000
H    -0.160000000    -4.495000000     5.142000000
O     6.004000000     3.870000000     2.703000000
H     6.882000000     3.518000000     2.550000000
H     5.438000000     3.361000000     2.122000000
O    -5.926000000     2.825000000    -3.246000000
H    -6.612000000     3.431000000    -2.966000000
H    -5.403000000     2.674000000    -2.458000000
O    -1.112000000     1.404000000    -5.899000000
H    -0.635000000     2.233000000    -5.938000000
H    -0.515000000     0.765000000    -6.288000000
O    -3.687000000    -2.757000000     6.405000000
H    -3.084000000    -3.436000000     6.709000000
H    -3.182000000    -1.945000000     6.464000000
O    -5.983000000    -5.303000000    -0.447000000
H    -6.076000000    -4.542000000     0.127000000
H    -6.813000000    -5.347000000    -0.922000000
O    -1.089000000     1.853000000     6.431000000
H    -0.584000000     2.650000000     6.593000000
H    -1.492000000     1.649000000     7.275000000
O     1.525000000    -3.072000000    -0.729000000
H     1.973000000    -3.725000000    -0.191000000
H     1.114000000    -2.482000000    -0.097000000
O    -2.311000000    -0.317000000    -4.072000000
H    -1.906000000     0.443000000    -4.490000000
H    -1.669000000    -1.019000000    -4.178000000
O     4.115000000    -2.199000000    -1.668000000
H     4.057000000    -2.982000000    -2.215000000
H     3.289000000    -2.182000000    -1.185000000
O     1.763000000     2.574000000     4.806000000
H     1.595000000     2.610000000     3.864000000
H     1.379000000     1.743000000     5.085000000
O     7.030000000     0.824000000    -2.539000000
H     6.416000000     1.552000000    -2.442000000
H     7.618000000     0.904000000    -1.788000000
O    -1.304000000     4.071000000     1.988000000
H    -0.375000000     3.852000000     2.054000000
H    -1.696000000     3.697000000     2.777000000
O    -1.800000000     4.777000000    -3.146000000
H    -1.152000000     4.345000000    -2.589000000
H    -1.634000000     4.428000000    -4.022000000
O    -3.886000000    -3.370000000    -3.119000000
H    -3.975000000    -3.594000000    -2.193000000
H    -3.151000000    -3.900000000    -3.425000000
O     0.165000000     3.773000000    -5.639000000
H     1.094000000     3.754000000    -5.406000000
H     0.052000000     4.601000000    -6.105000000
O    -7.301000000    -2.262000000     4.179000000
H    -8.116000000    -1.761000000     4.223000000
H    -6.611000000    -1.601000000     4.221000000
O     1.639000000    -2.649000000     2.963000000
H     1.027000000    -2.322000000     3.623000000
H     1.090000000    -2.844000000     2.203000000
O     2.666000000    -1.066000000    -5.760000000
H     2.535000000    -0.227000000    -6.203000000
H     3.388000000    -0.905000000    -5.152000000
O    -0.260000000    -0.168000000     4.990000000
H    -0.926000000    -0.389000000     4.339000000
H    -0.630000000     0.574000000     5.469000000
O    -0.432000000    -3.813000000     1.381000000
H    -0.185000000    -4.453000000     0.713000000
H    -0.877000000    -4.329000000     2.054000000
O     2.660000000     4.999000000     1.838000000
H     2.785000000     5.793000000     2.358000000
H     1.971000000     4.518000000     2.296000000
