161
-3060.93126
C    -0.133000000     0.224000000     1.452000000
H    -0.133000000     0.448000000     2.515000000
C     0.645000000     0.985000000     0.598000000
H     1.155000000     1.852000000     1.010000000
C     0.690000000     0.622000000    -0.740000000
C     1.568000000     1.408000000    -1.703000000
H     1.089000000     2.221000000    -2.252000000
H     2.412000000     1.918000000    -1.234000000
H     2.060000000     0.779000000    -2.448000000
C     0.025000000    -0.479000000    -1.214000000
H     0.097000000    -0.860000000    -2.230000000
C    -0.815000000    -1.197000000    -0.350000000
H    -1.446000000    -1.965000000    -0.789000000
C    -0.944000000    -0.787000000     0.976000000
C    -1.835000000    -1.517000000     1.883000000
O    -2.599000000    -2.354000000     1.436000000
O    -1.829000000    -1.296000000     3.087000000
O    -1.266000000     2.938000000     3.635000000
H    -1.686000000     2.325000000     4.239000000
H    -0.512000000     3.273000000     4.120000000
O    -0.397000000     4.281000000     1.420000000
H    -0.494000000     3.789000000     2.235000000
H    -1.002000000     3.857000000     0.811000000
O     4.612000000    -1.588000000     0.506000000
H     4.495000000    -1.535000000    -0.443000000
H     3.815000000    -2.012000000     0.823000000
O     2.770000000     0.779000000    -5.014000000
H     2.896000000    -0.160000000    -5.150000000
H     3.514000000     1.187000000    -5.457000000
O    -5.359000000    -1.612000000     3.393000000
H    -5.851000000    -2.416000000     3.558000000
H    -4.755000000    -1.544000000     4.133000000
O    -0.515000000     3.112000000    -6.308000000
H    -1.447000000     3.013000000    -6.503000000
H    -0.449000000     2.944000000    -5.368000000
O     1.693000000     3.023000000     4.068000000
H     2.208000000     3.460000000     3.389000000
H     2.017000000     2.122000000     4.070000000
O    -3.041000000     3.868000000     1.720000000
H    -3.973000000     3.658000000     1.773000000
H    -2.628000000     3.292000000     2.363000000
O     5.331000000     5.161000000    -3.593000000
H     5.545000000     5.616000000    -2.778000000
H     4.900000000     4.354000000    -3.310000000
O    -4.971000000    -1.796000000     0.098000000
H    -4.647000000    -1.705000000    -0.798000000
H    -4.182000000    -1.781000000     0.640000000
O    -5.000000000    -1.449000000    -3.249000000
H    -4.268000000    -2.006000000    -3.514000000
H    -4.809000000    -0.599000000    -3.644000000
O    -7.405000000    -1.688000000     1.196000000
H    -6.611000000    -1.923000000     0.717000000
H    -7.881000000    -2.512000000     1.291000000
O    -4.464000000     0.797000000     2.612000000
H    -3.520000000     0.666000000     2.528000000
H    -4.824000000    -0.088000000     2.677000000
O    -4.079000000    -1.763000000     5.900000000
H    -3.560000000    -2.400000000     6.390000000
H    -3.894000000    -0.926000000     6.325000000
O    -2.853000000    -2.996000000    -3.536000000
H    -2.157000000    -3.550000000    -3.184000000
H    -2.395000000    -2.346000000    -4.069000000
O     0.445000000     5.152000000     4.843000000
H     0.903000000     4.322000000     4.706000000
H     0.087000000     5.084000000     5.728000000
O     4.843000000     4.331000000     3.184000000
H     4.090000000     4.662000000     2.694000000
H     4.739000000     4.699000000     4.061000000
O    -3.304000000    -3.887000000     3.390000000
H    -3.088000000    -3.228000000     2.731000000
H    -3.306000000    -3.406000000     4.218000000
O     3.873000000     2.750000000    -3.139000000
H     4.253000000     1.917000000    -2.861000000
H     3.061000000     2.506000000    -3.585000000
O    -0.872000000    -6.350000000     0.911000000
H    -1.714000000    -5.922000000     0.751000000
H    -0.799000000    -6.385000000     1.864000000
O    -5.146000000    -5.258000000     1.872000000
H    -5.567000000    -4.579000000     1.346000000
H    -4.605000000    -4.775000000     2.497000000
O     2.192000000     4.100000000     1.607000000
H     2.566000000     4.615000000     0.892000000
H     1.252000000     4.276000000     1.562000000
O     5.108000000     0.530000000    -2.193000000
H     5.185000000     0.758000000    -1.266000000
H     4.732000000    -0.350000000    -2.192000000
O    -1.613000000     2.544000000    -3.108000000
H    -1.015000000     3.233000000    -2.819000000
H    -1.425000000     1.805000000    -2.529000000
O     2.543000000     0.235000000     4.425000000
H     2.118000000    -0.474000000     3.944000000
H     3.424000000     0.284000000     4.052000000
O     6.167000000     0.006000000    -4.726000000
H     6.627000000     0.753000000    -5.108000000
H     5.571000000     0.394000000    -4.086000000
O     0.442000000    -2.162000000     4.244000000
H     0.025000000    -2.274000000     5.099000000
H    -0.277000000    -1.934000000     3.655000000
O     5.206000000     1.062000000     0.633000000
H     4.989000000     0.131000000     0.660000000
H     4.938000000     1.396000000     1.489000000
O     1.072000000    -3.505000000     0.116000000
H     1.587000000    -4.284000000    -0.094000000
H     0.665000000    -3.256000000    -0.714000000
O    -0.497000000    -1.862000000     7.272000000
H    -1.222000000    -2.185000000     7.807000000
H     0.238000000    -1.794000000     7.882000000
O     4.324000000    -2.024000000    -2.295000000
H     3.465000000    -2.337000000    -2.578000000
H     4.942000000    -2.656000000    -2.661000000
O    -0.109000000     4.328000000    -1.542000000
H     0.092000000     4.818000000    -0.745000000
H     0.564000000     4.598000000    -2.166000000
O    -2.085000000     0.876000000     4.886000000
H    -2.252000000     0.516000000     5.757000000
H    -2.126000000     0.119000000     4.302000000
O    -3.526000000     0.636000000    -4.429000000
H    -2.909000000     0.592000000    -5.159000000
H    -3.346000000     1.479000000    -4.013000000
O    -0.849000000    -4.531000000    -2.229000000
H    -1.424000000    -4.302000000    -1.500000000
H    -0.514000000    -5.400000000    -2.007000000
O     2.189000000    -2.019000000    -5.184000000
H     1.848000000    -2.695000000    -4.600000000
H     2.989000000    -2.397000000    -5.548000000
O    -3.473000000     4.341000000    -1.772000000
H    -2.631000000     3.951000000    -2.009000000
H    -3.651000000     4.008000000    -0.892000000
O     2.443000000    -2.040000000     2.077000000
H     2.280000000    -2.596000000     2.838000000
H     1.754000000    -2.276000000     1.456000000
O     0.662000000     1.917000000     6.415000000
H     1.549000000     2.277000000     6.408000000
H     0.542000000     1.560000000     5.535000000
O     0.297000000     0.027000000    -6.423000000
H     0.106000000     0.761000000    -7.007000000
H     1.033000000     0.330000000    -5.891000000
O    -4.990000000     2.326000000     0.340000000
H    -5.661000000     1.964000000    -0.239000000
H    -4.791000000     1.615000000     0.950000000
O     1.577000000    -3.657000000    -3.063000000
H     0.630000000    -3.527000000    -3.016000000
H     1.682000000    -4.526000000    -3.449000000
O     2.740000000     5.109000000    -1.182000000
H     2.349000000     5.216000000    -2.049000000
H     3.487000000     4.528000000    -1.325000000
O    -3.016000000    -4.403000000    -0.225000000
H    -3.861000000    -4.830000000    -0.085000000
H    -2.993000000    -3.699000000     0.423000000
O    -0.003000000    -4.796000000     3.323000000
H    -0.249000000    -4.126000000     3.960000000
H     0.124000000    -4.314000000     2.506000000
O    -1.790000000    -1.635000000    -5.692000000
H    -1.946000000    -2.194000000    -6.453000000
H    -0.990000000    -1.155000000    -5.907000000
O     1.427000000     5.469000000    -3.601000000
H     1.026000000     5.445000000    -4.470000000
H     1.467000000     6.400000000    -3.382000000
O    -4.861000000    -5.345000000    -3.049000000
H    -5.410000000    -5.474000000    -2.275000000
H    -4.002000000    -5.113000000    -2.697000000
