161
-3022.08121
C     0.230000000    -0.181000000     1.474000000
H     0.337000000    -0.172000000     2.556000000
C     1.195000000     0.190000000     0.554000000
H     2.224000000     0.438000000     0.802000000
C     0.880000000     0.339000000    -0.826000000
C     1.898000000     0.867000000    -1.824000000
H     1.392000000     1.664000000    -2.373000000
H     2.827000000     1.255000000    -1.399000000
H     2.000000000     0.067000000    -2.560000000
C    -0.367000000    -0.038000000    -1.235000000
H    -0.729000000     0.104000000    -2.250000000
C    -1.290000000    -0.479000000    -0.333000000
H    -2.270000000    -0.678000000    -0.759000000
C    -1.065000000    -0.525000000     1.044000000
C    -2.128000000    -0.876000000     2.084000000
O    -3.214000000    -1.216000000     1.771000000
O    -1.925000000    -0.762000000     3.266000000
O    -0.060000000     3.575000000     3.087000000
H     0.756000000     3.078000000     3.026000000
H     0.186000000     4.385000000     3.535000000
O     3.249000000    -2.292000000    -0.011000000
H     3.332000000    -1.950000000    -0.901000000
H     2.306000000    -2.389000000     0.121000000
O    -0.499000000     3.751000000    -1.604000000
H    -1.095000000     3.490000000    -0.902000000
H    -0.500000000     3.009000000    -2.208000000
O     0.444000000     0.500000000     7.536000000
H    -0.408000000     0.065000000     7.556000000
H     0.613000000     0.655000000     6.607000000
O    -3.949000000     0.234000000     5.499000000
H    -3.160000000     0.494000000     5.025000000
H    -4.384000000    -0.389000000     4.918000000
O    -5.588000000    -3.211000000     3.590000000
H    -6.358000000    -2.646000000     3.526000000
H    -5.658000000    -3.798000000     2.836000000
O     4.420000000     1.284000000     3.036000000
H     4.499000000     0.404000000     2.666000000
H     3.839000000     1.747000000     2.432000000
O     4.915000000     4.211000000    -1.960000000
H     4.013000000     4.383000000    -1.692000000
H     5.024000000     4.708000000    -2.770000000
O    -5.085000000    -3.195000000    -1.600000000
H    -6.013000000    -2.996000000    -1.476000000
H    -5.049000000    -4.150000000    -1.650000000
O    -1.138000000     6.011000000    -2.840000000
H    -0.265000000     6.119000000    -3.217000000
H    -1.134000000     5.125000000    -2.478000000
O    -1.928000000    -3.982000000    -2.231000000
H    -2.666000000    -4.307000000    -1.715000000
H    -1.513000000    -4.771000000    -2.580000000
O    -4.086000000     2.355000000     0.979000000
H    -4.332000000     1.515000000     1.366000000
H    -4.592000000     2.402000000     0.168000000
O    -5.167000000    -0.044000000     2.794000000
H    -4.374000000    -0.492000000     2.499000000
H    -5.879000000    -0.489000000     2.335000000
O     2.019000000     4.408000000    -0.939000000
H     1.951000000     5.245000000    -0.479000000
H     1.176000000     4.308000000    -1.381000000
O     5.304000000    -0.277000000    -3.219000000
H     4.796000000    -1.079000000    -3.093000000
H     5.208000000     0.199000000    -2.394000000
O    -3.231000000    -2.552000000     4.803000000
H    -4.047000000    -2.771000000     4.351000000
H    -2.748000000    -2.014000000     4.177000000
O    -1.686000000    -0.900000000     6.838000000
H    -1.760000000    -1.611000000     6.202000000
H    -2.572000000    -0.542000000     6.901000000
O    -3.002000000     1.399000000    -5.674000000
H    -3.786000000     0.851000000    -5.699000000
H    -2.549000000     1.206000000    -6.495000000
O    -1.700000000    -5.969000000     0.559000000
H    -2.234000000    -6.749000000     0.415000000
H    -2.328000000    -5.291000000     0.809000000
O     5.410000000     0.719000000    -5.918000000
H     6.010000000     0.251000000    -6.498000000
H     5.421000000     0.215000000    -5.104000000
O     3.666000000     2.861000000     0.977000000
H     3.205000000     3.054000000     0.161000000
H     3.172000000     3.333000000     1.648000000
O    -7.716000000    -0.222000000    -0.745000000
H    -8.304000000    -0.076000000    -0.004000000
H    -6.872000000    -0.427000000    -0.344000000
O     5.307000000     1.579000000    -0.962000000
H     4.983000000     1.539000000    -0.063000000
H     4.807000000     2.287000000    -1.367000000
O     3.850000000     5.208000000    -4.387000000
H     3.066000000     5.702000000    -4.148000000
H     3.532000000     4.321000000    -4.555000000
O    -2.124000000     4.167000000     0.714000000
H    -2.776000000     3.467000000     0.730000000
H    -1.926000000     4.331000000     1.637000000
O     1.598000000     0.899000000     4.988000000
H     2.448000000     0.635000000     5.341000000
H     1.683000000     1.840000000     4.837000000
O     2.010000000    -1.690000000    -5.660000000
H     2.260000000    -1.296000000    -6.496000000
H     2.086000000    -2.633000000    -5.808000000
O     0.084000000    -1.982000000     4.781000000
H     0.590000000    -1.213000000     5.043000000
H    -0.589000000    -1.638000000     4.194000000
O     7.956000000     1.946000000    -0.764000000
H     8.483000000     1.178000000    -0.545000000
H     7.060000000     1.613000000    -0.824000000
O     0.237000000    -3.753000000    -0.747000000
H    -0.004000000    -2.947000000    -1.202000000
H    -0.597000000    -4.188000000    -0.570000000
O     0.510000000     4.172000000    -5.384000000
H     0.784000000     4.015000000    -6.288000000
H     0.267000000     3.307000000    -5.054000000
O     2.974000000    -2.318000000    -3.158000000
H     2.818000000    -3.262000000    -3.124000000
H     2.559000000    -2.036000000    -3.973000000
O    -1.820000000     1.604000000     4.363000000
H    -1.132000000     2.162000000     4.000000000
H    -1.797000000     0.814000000     3.823000000
O    -3.487000000    -2.418000000    -3.957000000
H    -2.761000000    -2.760000000    -3.436000000
H    -4.261000000    -2.562000000    -3.413000000
O    -1.302000000    -5.404000000     3.366000000
H    -1.379000000    -5.798000000     2.498000000
H    -1.800000000    -4.589000000     3.305000000
O     0.880000000     0.960000000    -5.669000000
H     0.476000000     0.681000000    -6.491000000
H     1.370000000     0.194000000    -5.371000000
O     4.609000000    -1.557000000     2.263000000
H     4.330000000    -2.204000000     2.911000000
H     4.157000000    -1.813000000     1.459000000
O    -3.870000000     0.345000000    -3.011000000
H    -3.924000000    -0.586000000    -3.227000000
H    -3.202000000     0.691000000    -3.604000000
O     4.628000000     0.212000000     5.514000000
H     4.305000000     0.452000000     4.645000000
H     5.371000000     0.797000000     5.663000000
O     2.258000000     3.321000000     4.537000000
H     2.275000000     3.804000000     5.363000000
H     2.595000000     3.940000000     3.890000000
O    -4.986000000    -0.609000000     0.015000000
H    -4.867000000    -1.336000000    -0.596000000
H    -4.226000000    -0.656000000     0.595000000
O    -5.424000000     2.438000000    -1.460000000
H    -4.740000000     1.852000000    -1.783000000
H    -5.897000000     2.711000000    -2.247000000
O     6.959000000     4.323000000    -0.043000000
H     6.155000000     4.103000000    -0.513000000
H     7.536000000     3.574000000    -0.193000000
O    -3.543000000    -3.710000000     1.031000000
H    -4.484000000    -3.883000000     1.001000000
H    -3.466000000    -2.884000000     1.508000000
O    -0.800000000     2.040000000    -3.841000000
H    -1.573000000     1.791000000    -4.348000000
H    -0.092000000     1.511000000    -4.209000000
O     1.219000000    -4.493000000     4.552000000
H     1.138000000    -3.561000000     4.347000000
H     0.361000000    -4.860000000     4.341000000
O    -6.441000000     2.323000000     3.278000000
H    -5.690000000     2.916000000     3.274000000
H    -6.062000000     1.458000000     3.431000000
O     3.188000000     2.598000000    -5.196000000
H     4.007000000     2.102000000    -5.216000000
H     2.505000000     1.935000000    -5.298000000
