161
-3013.38530
C     0.141000000    -0.355000000     1.487000000
H     0.501000000    -0.447000000     2.509000000
C     1.166000000    -0.229000000     0.556000000
H     2.187000000    -0.419000000     0.878000000
C     0.934000000    -0.062000000    -0.812000000
C     2.001000000     0.009000000    -1.854000000
H     2.640000000    -0.868000000    -1.735000000
H     1.689000000     0.079000000    -2.898000000
H     2.715000000     0.813000000    -1.665000000
C    -0.347000000     0.266000000    -1.239000000
H    -0.605000000     0.468000000    -2.276000000
C    -1.447000000     0.230000000    -0.344000000
H    -2.476000000     0.534000000    -0.515000000
C    -1.169000000    -0.077000000     1.046000000
C    -2.331000000     0.023000000     2.036000000
O    -3.276000000     0.757000000     1.828000000
O    -2.329000000    -0.716000000     2.997000000
O    -2.913000000    -4.838000000     1.445000000
H    -3.815000000    -5.042000000     1.197000000
H    -2.994000000    -4.357000000     2.269000000
O     0.245000000     3.048000000    -1.028000000
H     0.128000000     3.113000000    -1.976000000
H     0.045000000     2.135000000    -0.824000000
O    -1.699000000     5.544000000    -2.427000000
H    -1.156000000     4.796000000    -2.675000000
H    -2.127000000     5.810000000    -3.241000000
O     0.419000000     2.209000000     3.564000000
H     1.319000000     2.466000000     3.363000000
H     0.041000000     1.978000000     2.716000000
O     3.492000000    -3.708000000    -1.080000000
H     3.275000000    -3.734000000    -2.012000000
H     2.662000000    -3.507000000    -0.646000000
O    -4.287000000    -0.054000000    -2.632000000
H    -5.192000000     0.081000000    -2.351000000
H    -4.081000000    -0.947000000    -2.358000000
O    -2.209000000    -5.395000000     4.734000000
H    -2.489000000    -4.495000000     4.569000000
H    -1.550000000    -5.319000000     5.424000000
O    -4.082000000     3.691000000    -4.735000000
H    -4.949000000     3.322000000    -4.903000000
H    -3.532000000     2.932000000    -4.539000000
O     2.917000000     0.727000000    -7.201000000
H     2.308000000     0.412000000    -6.533000000
H     2.453000000     0.599000000    -8.028000000
O    -5.565000000     0.681000000     0.362000000
H    -4.820000000     0.632000000     0.961000000
H    -5.976000000    -0.181000000     0.420000000
O    -2.924000000     2.047000000     7.016000000
H    -2.439000000     1.281000000     6.709000000
H    -3.675000000     2.107000000     6.424000000
O    -0.267000000    -1.033000000    -4.189000000
H     0.343000000    -1.258000000    -3.486000000
H    -0.154000000    -1.729000000    -4.836000000
O     0.322000000     3.858000000    -3.599000000
H     0.492000000     3.270000000    -4.336000000
H     0.553000000     4.727000000    -3.928000000
O     2.205000000     4.909000000    -0.429000000
H     1.434000000     4.414000000    -0.706000000
H     2.942000000     4.450000000    -0.832000000
O    -2.616000000     0.886000000    -4.646000000
H    -3.126000000     0.829000000    -3.838000000
H    -1.881000000     0.289000000    -4.508000000
O    -4.653000000     2.553000000     5.084000000
H    -4.756000000     1.707000000     4.647000000
H    -4.496000000     3.173000000     4.372000000
O    -4.766000000    -1.240000000     6.082000000
H    -3.868000000    -1.231000000     6.415000000
H    -5.185000000    -1.965000000     6.545000000
O     3.456000000     1.384000000    -4.272000000
H     2.596000000     1.575000000    -4.646000000
H     3.551000000     0.436000000    -4.362000000
O     0.585000000     1.071000000    -5.799000000
H     0.098000000     0.485000000    -5.221000000
H     0.028000000     1.162000000    -6.573000000
O    -4.103000000     2.469000000    -1.630000000
H    -3.769000000     1.624000000    -1.929000000
H    -4.659000000     2.256000000    -0.880000000
O    -3.448000000     4.951000000    -0.489000000
H    -3.884000000     4.260000000    -0.987000000
H    -2.615000000     5.083000000    -0.941000000
O     3.335000000    -1.358000000    -5.019000000
H     3.586000000    -1.911000000    -5.759000000
H     3.059000000    -1.976000000    -4.341000000
O     3.080000000     2.983000000     3.069000000
H     3.313000000     2.092000000     3.330000000
H     3.917000000     3.443000000     3.011000000
O     0.423000000     1.766000000     6.451000000
H    -0.232000000     1.483000000     5.812000000
H     0.751000000     2.596000000     6.105000000
O     5.939000000     0.303000000    -3.409000000
H     5.617000000     1.017000000    -2.858000000
H     5.551000000    -0.485000000    -3.030000000
O     4.438000000     1.903000000     0.531000000
H     3.761000000     1.946000000     1.206000000
H     5.123000000     2.496000000     0.840000000
O     1.298000000    -4.006000000     2.994000000
H     0.642000000    -3.430000000     3.387000000
H     1.084000000    -4.013000000     2.061000000
O     5.498000000     3.251000000    -4.905000000
H     4.957000000     2.512000000    -4.626000000
H     4.869000000     3.914000000    -5.188000000
O    -2.891000000     4.930000000     3.981000000
H    -2.519000000     5.760000000     3.682000000
H    -2.845000000     4.357000000     3.215000000
O     5.647000000    -2.200000000    -1.444000000
H     5.031000000    -2.904000000    -1.242000000
H     5.784000000    -1.756000000    -0.607000000
O     6.235000000    -2.175000000     2.762000000
H     6.164000000    -1.500000000     2.087000000
H     6.013000000    -1.722000000     3.576000000
O     1.028000000    -3.132000000    -0.260000000
H     0.992000000    -2.180000000    -0.165000000
H     0.473000000    -3.318000000    -1.018000000
O     3.520000000    -2.320000000     3.179000000
H     2.821000000    -2.970000000     3.125000000
H     4.169000000    -2.713000000     3.763000000
O     5.922000000    -0.633000000     0.595000000
H     6.709000000    -0.110000000     0.747000000
H     5.215000000     0.009000000     0.537000000
O     5.375000000     2.361000000    -2.048000000
H     4.898000000     2.009000000    -1.296000000
H     4.889000000     3.148000000    -2.293000000
O    -2.533000000     3.436000000     1.785000000
H    -2.876000000     2.546000000     1.708000000
H    -2.718000000     3.839000000     0.937000000
O    -3.157000000    -4.243000000    -1.557000000
H    -2.360000000    -4.261000000    -2.086000000
H    -2.857000000    -3.999000000    -0.681000000
O    -6.327000000    -1.951000000     0.148000000
H    -6.058000000    -2.535000000     0.856000000
H    -6.142000000    -2.443000000    -0.652000000
O    -0.515000000    -2.175000000     4.082000000
H    -1.178000000    -1.682000000     3.597000000
H     0.049000000    -1.504000000     4.467000000
O    -0.203000000    -4.013000000    -2.387000000
H    -0.140000000    -4.967000000    -2.345000000
H    -0.189000000    -3.813000000    -3.323000000
O    -1.937000000    -0.208000000     5.644000000
H    -2.258000000    -0.284000000     4.745000000
H    -1.389000000    -0.984000000     5.768000000
O    -3.586000000    -3.280000000     3.696000000
H    -3.223000000    -2.405000000     3.561000000
H    -4.437000000    -3.126000000     4.107000000
O    -5.038000000     0.317000000     3.502000000
H    -4.255000000     0.426000000     2.963000000
H    -4.749000000    -0.222000000     4.238000000
O     3.232000000     0.314000000     3.436000000
H     3.304000000     0.192000000     4.383000000
H     3.226000000    -0.575000000     3.080000000
O    -7.097000000     2.363000000     2.316000000
H    -6.474000000     2.891000000     1.816000000
H    -6.696000000     1.495000000     2.355000000
O     1.121000000    -0.646000000     5.497000000
H     1.144000000     0.306000000     5.590000000
H     1.897000000    -0.952000000     5.965000000
O     2.918000000    -4.108000000    -3.658000000
H     2.146000000    -4.519000000    -4.046000000
H     3.655000000    -4.469000000    -4.150000000
O     4.123000000     4.976000000    -2.283000000
H     4.076000000     5.068000000    -3.235000000
H     4.564000000     5.772000000    -1.987000000
