161
-3058.88903
C    -0.057000000    -0.424000000     1.400000000
H     0.005000000    -0.848000000     2.399000000
C     1.023000000    -0.485000000     0.595000000
H     1.920000000    -0.909000000     1.040000000
C     1.007000000    -0.019000000    -0.703000000
C     2.211000000    -0.137000000    -1.645000000
H     3.057000000    -0.231000000    -0.962000000
H     2.227000000    -1.080000000    -2.197000000
H     2.319000000     0.744000000    -2.280000000
C    -0.133000000     0.582000000    -1.196000000
H    -0.209000000     0.946000000    -2.217000000
C    -1.293000000     0.655000000    -0.375000000
H    -2.223000000     1.105000000    -0.712000000
C    -1.252000000     0.108000000     0.894000000
C    -2.499000000     0.039000000     1.792000000
O    -3.431000000     0.754000000     1.507000000
O    -2.676000000    -0.806000000     2.655000000
O     1.796000000     0.682000000    -5.368000000
H     1.130000000     0.363000000    -4.760000000
H     2.066000000    -0.096000000    -5.857000000
O    -3.504000000    -2.767000000     0.818000000
H    -4.411000000    -3.043000000     0.689000000
H    -3.555000000    -2.079000000     1.481000000
O    -3.344000000    -3.551000000     6.279000000
H    -2.849000000    -3.175000000     5.551000000
H    -2.804000000    -3.377000000     7.050000000
O    -1.094000000     4.351000000    -0.995000000
H    -1.833000000     4.885000000    -1.286000000
H    -0.945000000     3.736000000    -1.713000000
O     1.534000000     3.152000000     0.016000000
H     0.693000000     3.449000000    -0.331000000
H     1.378000000     2.244000000     0.276000000
O     2.476000000    -4.088000000    -6.106000000
H     2.798000000    -4.915000000    -5.747000000
H     2.068000000    -3.646000000    -5.361000000
O     2.173000000    -3.680000000    -1.480000000
H     2.096000000    -3.566000000    -2.428000000
H     1.532000000    -3.071000000    -1.114000000
O    -3.262000000     0.687000000    -2.994000000
H    -3.763000000     0.221000000    -3.664000000
H    -3.017000000     0.008000000    -2.365000000
O     0.525000000     4.842000000    -5.036000000
H     0.873000000     5.196000000    -5.854000000
H    -0.130000000     4.201000000    -5.312000000
O    -2.286000000    -5.004000000     3.117000000
H    -2.683000000    -4.558000000     2.369000000
H    -1.854000000    -4.307000000     3.610000000
O     5.577000000    -3.543000000    -4.007000000
H     6.184000000    -3.124000000    -4.617000000
H     5.304000000    -2.838000000    -3.419000000
O    -5.612000000     1.724000000    -1.175000000
H    -5.568000000     0.900000000    -0.690000000
H    -5.300000000     1.502000000    -2.053000000
O    -2.955000000     2.088000000     7.257000000
H    -3.119000000     1.737000000     6.381000000
H    -3.803000000     2.428000000     7.541000000
O    -0.322000000    -0.707000000    -4.623000000
H    -0.826000000    -0.259000000    -3.944000000
H    -0.939000000    -0.816000000    -5.347000000
O     0.795000000     3.181000000    -2.965000000
H     1.706000000     2.888000000    -2.951000000
H     0.753000000     3.797000000    -3.696000000
O     0.622000000    -5.552000000     5.207000000
H     0.583000000    -4.620000000     4.991000000
H    -0.287000000    -5.797000000     5.376000000
O     1.795000000     5.913000000    -1.593000000
H     1.886000000     5.034000000    -1.226000000
H     1.582000000     5.767000000    -2.515000000
O    -2.959000000     3.291000000    -3.777000000
H    -3.446000000     2.470000000    -3.711000000
H    -2.165000000     3.061000000    -4.259000000
O    -5.739000000    -1.197000000    -2.911000000
H    -4.904000000    -1.047000000    -2.467000000
H    -6.395000000    -1.127000000    -2.218000000
O     5.796000000     2.127000000    -3.299000000
H     6.001000000     2.010000000    -2.371000000
H     5.095000000     2.778000000    -3.310000000
O    -1.843000000     2.790000000     4.022000000
H    -2.657000000     2.287000000     4.046000000
H    -1.651000000     2.891000000     3.090000000
O    -5.523000000    -2.076000000     4.793000000
H    -4.832000000    -1.658000000     5.308000000
H    -5.674000000    -2.914000000     5.232000000
O     3.596000000     2.635000000    -5.780000000
H     3.397000000     3.221000000    -5.050000000
H     3.013000000     1.886000000    -5.651000000
O    -0.833000000     2.352000000    -5.513000000
H    -0.999000000     2.042000000    -6.404000000
H     0.090000000     2.153000000    -5.358000000
O    -4.474000000     4.081000000    -1.244000000
H    -3.957000000     4.028000000    -2.048000000
H    -4.932000000     3.242000000    -1.198000000
O     0.529000000    -0.620000000     5.147000000
H     0.628000000     0.280000000     5.457000000
H     1.376000000    -0.832000000     4.754000000
O     0.526000000     2.367000000     5.222000000
H    -0.216000000     2.429000000     4.621000000
H     0.241000000     2.841000000     6.004000000
O     4.313000000     2.949000000    -0.189000000
H     4.619000000     3.555000000     0.486000000
H     3.376000000     2.853000000    -0.019000000
O     1.411000000    -3.767000000     2.490000000
H     1.895000000    -4.044000000     1.712000000
H     0.538000000    -3.548000000     2.164000000
O    -2.968000000     5.723000000     2.685000000
H    -2.934000000     6.213000000     1.863000000
H    -2.746000000     4.825000000     2.437000000
O     5.578000000    -1.892000000    -2.072000000
H     5.641000000    -2.517000000    -1.349000000
H     5.388000000    -1.055000000    -1.649000000
O     5.940000000    -1.569000000     2.104000000
H     5.699000000    -1.074000000     1.321000000
H     6.602000000    -1.029000000     2.535000000
O    -0.877000000    -3.575000000     0.907000000
H    -1.250000000    -2.702000000     0.784000000
H    -1.452000000    -4.154000000     0.407000000
O     5.604000000     0.422000000    -0.223000000
H     6.511000000     0.657000000    -0.421000000
H     5.165000000     1.260000000    -0.080000000
O     3.749000000     3.896000000    -2.605000000
H     4.116000000     3.692000000    -1.744000000
H     3.979000000     4.813000000    -2.753000000
O    -2.219000000     3.241000000     1.419000000
H    -2.623000000     2.440000000     1.087000000
H    -1.782000000     3.623000000     0.658000000
O    -3.161000000    -1.642000000    -1.854000000
H    -2.789000000    -2.442000000    -2.225000000
H    -3.266000000    -1.837000000    -0.922000000
O    -6.878000000    -0.613000000    -0.291000000
H    -6.423000000    -0.749000000     0.541000000
H    -7.807000000    -0.625000000    -0.060000000
O    -1.409000000    -2.299000000     4.324000000
H    -1.828000000    -1.872000000     3.576000000
H    -0.685000000    -1.718000000     4.556000000
O    -7.299000000     3.406000000    -0.204000000
H    -7.057000000     4.189000000    -0.699000000
H    -6.786000000     2.703000000    -0.603000000
O    -3.073000000     0.275000000     5.168000000
H    -2.876000000     0.274000000     4.231000000
H    -2.738000000    -0.564000000     5.484000000
O    -5.683000000    -1.302000000     2.147000000
H    -4.839000000    -0.854000000     2.096000000
H    -5.806000000    -1.477000000     3.080000000
O    -5.223000000     2.057000000     2.756000000
H    -4.622000000     1.501000000     2.261000000
H    -5.466000000     1.530000000     3.518000000
O     2.794000000     1.973000000     3.744000000
H     2.949000000     1.042000000     3.587000000
H     1.959000000     2.001000000     4.211000000
O    -6.968000000     4.144000000     2.341000000
H    -7.006000000     3.994000000     1.396000000
H    -6.393000000     3.454000000     2.670000000
O     3.138000000    -0.681000000     4.410000000
H     3.518000000    -0.414000000     5.248000000
H     3.296000000    -1.624000000     4.366000000
O     3.388000000    -5.497000000    -0.124000000
H     4.278000000    -5.198000000    -0.308000000
H     2.826000000    -4.854000000    -0.557000000
O     1.130000000    -3.314000000    -3.965000000
H     0.610000000    -2.544000000    -4.196000000
H     0.490000000    -4.022000000    -3.892000000
