161
-3007.94785
C    -0.320000000    -1.229000000     0.676000000
H    -0.459000000    -2.168000000     1.207000000
C     0.961000000    -0.806000000     0.365000000
H     1.785000000    -1.428000000     0.705000000
C     1.135000000     0.393000000    -0.344000000
C     2.490000000     1.046000000    -0.349000000
H     3.167000000     0.279000000     0.034000000
H     2.778000000     1.304000000    -1.370000000
H     2.631000000     1.942000000     0.260000000
C     0.047000000     1.093000000    -0.815000000
H     0.207000000     2.004000000    -1.386000000
C    -1.247000000     0.637000000    -0.520000000
H    -2.124000000     1.162000000    -0.891000000
C    -1.444000000    -0.499000000     0.290000000
C    -2.830000000    -1.085000000     0.622000000
O    -3.851000000    -0.653000000     0.079000000
O    -2.930000000    -1.994000000     1.441000000
O    -1.655000000    -4.756000000    -1.102000000
H    -2.438000000    -4.796000000    -0.553000000
H    -1.708000000    -3.901000000    -1.530000000
O     6.168000000     4.397000000    -2.210000000
H     6.241000000     5.333000000    -2.397000000
H     6.129000000     4.346000000    -1.255000000
O     1.358000000     3.663000000    -4.790000000
H     1.886000000     4.283000000    -4.286000000
H     0.509000000     4.094000000    -4.884000000
O     4.140000000     2.519000000     3.206000000
H     4.387000000     1.749000000     3.720000000
H     4.676000000     2.460000000     2.416000000
O     7.287000000     0.470000000    -1.232000000
H     7.732000000     1.099000000    -0.663000000
H     7.989000000     0.079000000    -1.753000000
O    -2.552000000     3.832000000    -0.891000000
H    -3.361000000     3.590000000    -0.441000000
H    -2.300000000     4.668000000    -0.498000000
O    -4.546000000    -2.454000000    -2.865000000
H    -3.722000000    -2.037000000    -2.613000000
H    -5.150000000    -2.241000000    -2.154000000
O     1.606000000     4.202000000    -1.156000000
H     1.408000000     3.339000000    -1.520000000
H     2.309000000     4.041000000    -0.527000000
O    -6.850000000     2.002000000    -0.832000000
H    -6.079000000     1.552000000    -1.176000000
H    -7.327000000     2.289000000    -1.611000000
O    -5.209000000    -5.943000000    -1.282000000
H    -4.842000000    -5.323000000    -0.652000000
H    -5.357000000    -6.741000000    -0.774000000
O    -4.641000000     0.665000000     2.420000000
H    -5.555000000     0.751000000     2.150000000
H    -4.249000000     0.095000000     1.758000000
O     5.157000000    -1.037000000    -2.003000000
H     5.245000000    -1.181000000    -2.946000000
H     5.746000000    -0.306000000    -1.816000000
O    -4.190000000    -4.073000000     0.510000000
H    -4.747000000    -4.227000000     1.273000000
H    -3.765000000    -3.234000000     0.690000000
O     4.471000000    -5.437000000    -1.144000000
H     3.804000000    -6.122000000    -1.189000000
H     4.045000000    -4.664000000    -1.515000000
O    -2.545000000     1.246000000    -3.929000000
H    -3.026000000     1.748000000    -4.587000000
H    -1.669000000     1.141000000    -4.301000000
O    -2.368000000    -1.350000000    -2.408000000
H    -1.488000000    -1.427000000    -2.039000000
H    -2.461000000    -0.420000000    -2.614000000
O    -5.038000000     1.885000000     4.792000000
H    -4.284000000     1.935000000     5.379000000
H    -4.667000000     1.640000000     3.945000000
O     4.318000000     3.489000000    -5.244000000
H     3.624000000     3.542000000    -4.587000000
H     4.495000000     4.399000000    -5.480000000
O    -7.885000000    -2.813000000    -2.691000000
H    -8.389000000    -3.466000000    -2.206000000
H    -7.257000000    -2.473000000    -2.054000000
O    -4.154000000     3.424000000     1.563000000
H    -3.240000000     3.375000000     1.843000000
H    -4.455000000     2.515000000     1.567000000
O     1.485000000     3.106000000     2.810000000
H     1.384000000     4.032000000     2.593000000
H     2.427000000     2.992000000     2.941000000
O    -2.415000000    -5.297000000     2.379000000
H    -2.290000000    -5.262000000     3.327000000
H    -2.755000000    -4.432000000     2.149000000
O    -3.246000000     4.845000000    -3.382000000
H    -2.841000000     4.364000000    -2.660000000
H    -4.174000000     4.614000000    -3.332000000
O    -6.616000000    -3.191000000     4.995000000
H    -5.891000000    -2.585000000     4.846000000
H    -6.606000000    -3.770000000     4.233000000
O     3.201000000    -3.211000000    -2.007000000
H     3.596000000    -2.339000000    -1.988000000
H     2.304000000    -3.060000000    -2.303000000
O    -6.847000000    -2.438000000     2.011000000
H    -6.709000000    -3.340000000     2.299000000
H    -7.748000000    -2.424000000     1.688000000
O     4.999000000    -0.318000000     4.440000000
H     4.307000000    -0.960000000     4.601000000
H     5.540000000    -0.714000000     3.758000000
O     3.587000000    -2.847000000     4.725000000
H     3.158000000    -3.308000000     4.005000000
H     4.432000000    -3.286000000     4.823000000
O    -4.554000000     0.856000000    -1.927000000
H    -3.808000000     1.124000000    -2.464000000
H    -4.188000000     0.225000000    -1.307000000
O     3.368000000     6.750000000    -1.274000000
H     4.323000000     6.687000000    -1.281000000
H     3.076000000     5.915000000    -0.908000000
O     5.870000000     2.186000000     1.072000000
H     6.195000000     1.307000000     0.875000000
H     6.620000000     2.759000000     0.916000000
O    -1.374000000     3.235000000     1.578000000
H    -0.928000000     3.268000000     0.732000000
H    -0.772000000     3.670000000     2.183000000
O     0.632000000    -2.227000000    -2.856000000
H     0.403000000    -1.346000000    -3.151000000
H     0.273000000    -2.805000000    -3.530000000
O    -6.215000000    -1.771000000    -0.505000000
H    -6.289000000    -2.035000000     0.412000000
H    -5.521000000    -1.113000000    -0.510000000
O     0.674000000    -4.958000000     0.354000000
H    -0.179000000    -4.796000000    -0.050000000
H     1.296000000    -4.911000000    -0.372000000
O     2.527000000    -0.165000000    -4.775000000
H     2.838000000    -1.054000000    -4.945000000
H     3.137000000     0.181000000    -4.124000000
O    -2.237000000    -1.607000000     6.117000000
H    -1.496000000    -1.205000000     5.664000000
H    -2.892000000    -1.744000000     5.432000000
O    -4.135000000    -1.908000000     3.801000000
H    -5.017000000    -1.616000000     3.572000000
H    -3.598000000    -1.661000000     3.048000000
O     0.422000000     0.661000000     2.835000000
H     0.717000000     1.556000000     2.666000000
H     0.693000000     0.169000000     2.060000000
O    -2.228000000     0.680000000     3.781000000
H    -1.683000000     0.597000000     2.998000000
H    -3.126000000     0.643000000     3.453000000
O     0.041000000    -0.384000000     5.450000000
H    -0.027000000    -0.164000000     4.521000000
H     0.863000000     0.018000000     5.732000000
O     3.123000000     5.585000000    -3.766000000
H     3.153000000     5.675000000    -2.814000000
H     3.478000000     6.411000000    -4.095000000
O     3.143000000    -3.618000000     2.005000000
H     2.369000000    -3.970000000     1.565000000
H     3.719000000    -3.342000000     1.292000000
O     4.006000000     4.075000000     0.328000000
H     4.525000000     3.271000000     0.363000000
H     4.536000000     4.722000000     0.793000000
O    -7.229000000     0.932000000     1.576000000
H    -8.153000000     0.713000000     1.698000000
H    -7.177000000     1.263000000     0.680000000
O     0.205000000     1.128000000    -4.532000000
H     0.976000000     0.564000000    -4.473000000
H     0.559000000     2.005000000    -4.677000000
O    -6.318000000     1.128000000    -3.821000000
H    -5.592000000     0.813000000    -3.283000000
H    -6.520000000     0.395000000    -4.403000000
O     0.325000000    -6.551000000     2.439000000
H    -0.490000000    -6.314000000     2.880000000
H     0.347000000    -5.996000000     1.660000000
