161
-3022.43849
C     0.030000000     0.515000000     1.358000000
H     0.180000000     0.968000000     2.334000000
C     0.988000000     0.676000000     0.409000000
H     1.928000000     1.139000000     0.700000000
C     0.832000000     0.175000000    -0.856000000
C     1.996000000     0.236000000    -1.869000000
H     2.042000000    -0.711000000    -2.410000000
H     1.803000000     1.083000000    -2.531000000
H     2.986000000     0.395000000    -1.436000000
C    -0.353000000    -0.459000000    -1.218000000
H    -0.400000000    -0.967000000    -2.177000000
C    -1.359000000    -0.583000000    -0.292000000
H    -2.219000000    -1.221000000    -0.476000000
C    -1.121000000    -0.196000000     1.096000000
C    -2.156000000    -0.351000000     2.178000000
O    -3.306000000    -0.536000000     1.870000000
O    -1.867000000    -0.156000000     3.318000000
O    -2.966000000     3.293000000    -0.017000000
H    -2.090000000     3.040000000    -0.309000000
H    -3.331000000     3.786000000    -0.751000000
O    -1.147000000    -3.204000000    -4.246000000
H    -1.178000000    -2.251000000    -4.163000000
H    -0.272000000    -3.385000000    -4.589000000
O     3.483000000    -2.652000000    -6.533000000
H     4.193000000    -3.048000000    -6.029000000
H     3.656000000    -2.915000000    -7.437000000
O     4.025000000     0.644000000    -5.454000000
H     3.524000000    -0.165000000    -5.563000000
H     4.923000000     0.401000000    -5.680000000
O     3.408000000     4.520000000     1.344000000
H     4.317000000     4.402000000     1.069000000
H     2.894000000     4.339000000     0.556000000
O     3.968000000     1.040000000     4.633000000
H     4.702000000     0.426000000     4.626000000
H     3.342000000     0.659000000     5.249000000
O    -1.551000000     4.544000000     4.927000000
H    -2.386000000     4.789000000     5.325000000
H    -1.697000000     3.661000000     4.589000000
O    -0.071000000     3.636000000     0.149000000
H     0.296000000     2.914000000     0.660000000
H     0.178000000     4.423000000     0.633000000
O     4.557000000    -2.228000000    -0.040000000
H     4.317000000    -2.719000000    -0.826000000
H     3.777000000    -2.264000000     0.513000000
O    -7.743000000    -2.066000000     2.347000000
H    -6.917000000    -2.235000000     2.800000000
H    -7.495000000    -1.544000000     1.584000000
O     0.892000000    -4.193000000     2.402000000
H     0.777000000    -5.143000000     2.378000000
H     0.000000000    -3.844000000     2.400000000
O    -3.218000000    -1.613000000     5.138000000
H    -3.027000000    -1.059000000     4.381000000
H    -2.515000000    -1.420000000     5.759000000
O     1.461000000     0.110000000     5.617000000
H     0.877000000    -0.553000000     5.249000000
H     1.274000000     0.100000000     6.556000000
O    -5.686000000     0.574000000     3.232000000
H    -4.910000000     0.255000000     3.693000000
H    -5.657000000     0.135000000     2.382000000
O    -4.537000000    -3.120000000    -2.776000000
H    -3.644000000    -3.451000000    -2.872000000
H    -5.064000000    -3.685000000    -3.340000000
O     2.241000000     2.899000000     3.289000000
H     2.868000000     2.226000000     3.554000000
H     2.707000000     3.413000000     2.630000000
O     1.653000000    -0.779000000    -7.894000000
H     0.798000000    -1.174000000    -8.064000000
H     1.961000000    -1.208000000    -7.096000000
O    -4.147000000     0.678000000     6.665000000
H    -3.959000000     1.215000000     5.895000000
H    -4.662000000    -0.054000000     6.326000000
O    -1.012000000     5.316000000    -2.353000000
H    -0.738000000     5.027000000    -1.483000000
H    -0.599000000     4.694000000    -2.953000000
O     3.045000000     3.011000000    -4.192000000
H     3.582000000     2.253000000    -4.423000000
H     3.317000000     3.694000000    -4.804000000
O     2.207000000    -2.195000000     1.194000000
H     1.874000000    -2.930000000     1.709000000
H     1.450000000    -1.889000000     0.696000000
O     1.406000000     5.144000000     4.789000000
H     1.608000000     4.298000000     4.391000000
H     0.464000000     5.252000000     4.658000000
O     5.801000000     0.002000000    -1.503000000
H     5.585000000     0.873000000    -1.170000000
H     5.453000000    -0.599000000    -0.844000000
O    -1.273000000     2.279000000    -5.553000000
H    -0.894000000     2.067000000    -6.406000000
H    -1.734000000     1.482000000    -5.291000000
O    -1.683000000    -5.279000000    -2.313000000
H    -1.637000000    -4.755000000    -3.113000000
H    -2.537000000    -5.708000000    -2.357000000
O     4.516000000    -4.526000000    -2.292000000
H     3.831000000    -5.001000000    -1.821000000
H     5.273000000    -5.112000000    -2.268000000
O    -1.653000000    -0.453000000     8.005000000
H    -2.451000000     0.056000000     7.862000000
H    -1.651000000    -0.635000000     8.945000000
O     0.523000000     5.512000000     1.837000000
H     0.031000000     6.287000000     1.567000000
H     1.234000000     5.856000000     2.378000000
O    -1.818000000    -3.636000000     2.674000000
H    -2.131000000    -3.735000000     1.775000000
H    -2.552000000    -3.239000000     3.142000000
O     5.448000000     3.166000000    -1.830000000
H     4.493000000     3.226000000    -1.838000000
H     5.712000000     3.447000000    -2.707000000
O     7.897000000     0.723000000    -3.390000000
H     7.258000000     0.785000000    -2.681000000
H     7.405000000     0.356000000    -4.125000000
O     1.032000000    -4.510000000    -4.836000000
H     1.402000000    -4.983000000    -5.581000000
H     1.770000000    -4.385000000    -4.240000000
O    -2.563000000    -0.379000000    -6.122000000
H    -3.365000000     0.133000000    -6.021000000
H    -2.854000000    -1.290000000    -6.077000000
O    -6.811000000    -1.013000000    -0.251000000
H    -7.191000000    -0.859000000    -1.116000000
H    -6.157000000    -0.322000000    -0.150000000
O     0.168000000     3.954000000    -4.304000000
H    -0.458000000     3.383000000    -4.750000000
H     1.023000000     3.669000000    -4.627000000
O    -7.257000000     2.453000000     4.255000000
H    -6.528000000     1.963000000     3.873000000
H    -6.898000000     3.324000000     4.424000000
O    -2.766000000    -4.586000000     0.409000000
H    -3.520000000    -4.042000000     0.182000000
H    -2.464000000    -4.938000000    -0.428000000
O     2.541000000     3.489000000    -1.390000000
H     1.663000000     3.381000000    -1.023000000
H     2.459000000     3.191000000    -2.296000000
O    -3.853000000     1.061000000    -2.764000000
H    -4.435000000     1.734000000    -3.117000000
H    -3.294000000     0.818000000    -3.501000000
O    -5.038000000    -2.542000000     2.140000000
H    -5.214000000    -2.779000000     1.229000000
H    -4.335000000    -1.894000000     2.087000000
O    -0.242000000    -1.944000000     4.679000000
H    -0.879000000    -2.586000000     4.366000000
H    -0.577000000    -1.103000000     4.369000000
O    -5.383000000    -3.302000000    -0.321000000
H    -5.096000000    -3.285000000    -1.234000000
H    -5.995000000    -2.569000000    -0.249000000
O    -2.763000000     2.017000000     4.561000000
H    -3.088000000     2.621000000     3.893000000
H    -2.329000000     1.323000000     4.065000000
O    -4.863000000    -3.691000000     4.691000000
H    -5.042000000    -3.563000000     3.759000000
H    -4.372000000    -2.911000000     4.950000000
O    -4.687000000     0.633000000    -0.166000000
H    -4.212000000     1.093000000    -0.859000000
H    -4.114000000     0.695000000     0.598000000
O     6.316000000    -0.682000000     1.892000000
H     5.702000000    -1.147000000     1.323000000
H     7.172000000    -0.826000000     1.490000000
O     2.165000000     2.904000000     6.514000000
H     1.704000000     2.395000000     5.847000000
H     1.532000000     2.994000000     7.226000000
O    -3.181000000     3.763000000     2.481000000
H    -3.306000000     3.488000000     1.572000000
H    -2.325000000     4.191000000     2.486000000
