161
-3060.65421
C    -0.213000000    -1.089000000     0.940000000
H    -0.343000000    -1.986000000     1.540000000
C     0.642000000    -1.120000000    -0.162000000
H     1.167000000    -2.049000000    -0.371000000
C     0.707000000    -0.059000000    -1.070000000
C     1.730000000    -0.098000000    -2.162000000
H     1.769000000     0.867000000    -2.671000000
H     2.713000000    -0.407000000    -1.803000000
H     1.357000000    -0.875000000    -2.833000000
C    -0.021000000     1.072000000    -0.797000000
H    -0.041000000     1.936000000    -1.456000000
C    -0.787000000     1.128000000     0.403000000
H    -1.373000000     2.016000000     0.626000000
C    -0.974000000     0.077000000     1.269000000
C    -1.848000000     0.164000000     2.545000000
O    -2.535000000     1.144000000     2.612000000
O    -1.945000000    -0.723000000     3.388000000
O    -0.179000000     2.726000000    -3.943000000
H    -0.624000000     1.896000000    -4.116000000
H     0.716000000     2.476000000    -3.715000000
O     6.151000000     0.697000000    -4.971000000
H     6.260000000    -0.107000000    -4.462000000
H     5.426000000     0.508000000    -5.566000000
O    -2.127000000    -3.906000000     1.544000000
H    -1.963000000    -3.582000000     2.430000000
H    -2.358000000    -3.125000000     1.042000000
O    -2.723000000    -1.918000000     7.655000000
H    -2.329000000    -1.338000000     7.003000000
H    -3.539000000    -2.213000000     7.251000000
O     2.633000000     2.007000000     0.484000000
H     1.721000000     1.843000000     0.244000000
H     2.591000000     2.315000000     1.389000000
O     3.334000000    -4.504000000    -3.361000000
H     3.207000000    -3.604000000    -3.662000000
H     2.807000000    -4.566000000    -2.565000000
O     6.770000000     2.616000000    -0.327000000
H     6.009000000     2.086000000    -0.560000000
H     7.516000000     2.139000000    -0.691000000
O     3.007000000    -6.330000000    -0.607000000
H     2.783000000    -5.579000000    -1.157000000
H     2.299000000    -6.377000000     0.034000000
O    -1.892000000    -5.801000000     4.216000000
H    -1.716000000    -4.873000000     4.369000000
H    -2.835000000    -5.843000000     4.055000000
O     0.016000000     4.821000000     1.917000000
H     0.302000000     4.158000000     1.289000000
H    -0.920000000     4.656000000     2.031000000
O     2.756000000    -2.106000000    -4.980000000
H     3.216000000    -2.541000000    -5.698000000
H     2.987000000    -1.182000000    -5.072000000
O    -1.092000000     0.272000000    -4.545000000
H    -1.754000000     0.201000000    -5.232000000
H    -0.591000000    -0.541000000    -4.609000000
O     2.739000000     2.967000000    -4.207000000
H     3.536000000     3.347000000    -3.835000000
H     2.288000000     3.706000000    -4.614000000
O    -3.439000000    -1.590000000     0.489000000
H    -3.095000000    -1.489000000    -0.399000000
H    -3.643000000    -0.698000000     0.770000000
O    -0.140000000     4.581000000    -1.752000000
H     0.650000000     5.090000000    -1.929000000
H    -0.217000000     3.989000000    -2.501000000
O    -3.137000000     3.498000000    -3.404000000
H    -3.602000000     4.254000000    -3.762000000
H    -2.217000000     3.764000000    -3.397000000
O    -0.068000000    -2.198000000    -4.853000000
H     0.861000000    -2.283000000    -5.066000000
H    -0.234000000    -2.895000000    -4.219000000
O     1.214000000     1.645000000     6.492000000
H     1.526000000     0.795000000     6.802000000
H     0.295000000     1.496000000     6.267000000
O    -6.969000000    -2.557000000     3.051000000
H    -6.627000000    -3.069000000     2.319000000
H    -6.208000000    -2.083000000     3.387000000
O    -4.767000000    -3.146000000     6.097000000
H    -4.011000000    -3.733000000     6.090000000
H    -5.243000000    -3.359000000     5.294000000
O     3.480000000     0.757000000    -5.951000000
H     2.986000000     0.618000000    -6.759000000
H     3.072000000     1.524000000    -5.548000000
O    -0.436000000     3.156000000    -6.627000000
H    -1.383000000     3.040000000    -6.701000000
H    -0.263000000     3.132000000    -5.686000000
O    -3.663000000     3.427000000    -0.400000000
H    -3.548000000     3.223000000    -1.328000000
H    -4.490000000     3.908000000    -0.361000000
O     2.189000000    -4.230000000     5.014000000
H     1.545000000    -3.553000000     5.220000000
H     2.467000000    -4.032000000     4.119000000
O     1.027000000     0.960000000    -7.642000000
H     0.173000000     0.553000000    -7.789000000
H     0.849000000     1.677000000    -7.034000000
O     0.639000000    -2.085000000     5.631000000
H     1.120000000    -1.825000000     6.417000000
H     0.768000000    -1.360000000     5.020000000
O     6.864000000    -1.476000000    -3.408000000
H     6.740000000    -2.107000000    -2.699000000
H     7.741000000    -1.122000000    -3.264000000
O     4.225000000     4.432000000    -0.105000000
H     5.096000000     4.321000000     0.274000000
H     3.726000000     3.681000000     0.216000000
O     2.679000000    -3.344000000     2.411000000
H     2.198000000    -3.693000000     1.661000000
H     3.590000000    -3.310000000     2.117000000
O    -3.613000000     5.956000000     3.391000000
H    -3.068000000     6.287000000     4.105000000
H    -3.036000000     5.370000000     2.901000000
O     4.100000000    -0.373000000     1.547000000
H     4.948000000     0.069000000     1.593000000
H     3.577000000     0.175000000     0.962000000
O     0.557000000    -5.668000000     0.826000000
H    -0.241000000    -5.265000000     1.168000000
H     0.782000000    -6.338000000     1.471000000
O    -6.891000000    -0.275000000    -0.122000000
H    -7.196000000    -0.934000000     0.502000000
H    -6.226000000     0.219000000     0.358000000
O     2.104000000    -0.616000000     3.704000000
H     2.882000000    -0.345000000     3.217000000
H     1.763000000    -1.364000000     3.214000000
O    -4.958000000    -3.635000000     1.751000000
H    -4.567000000    -2.835000000     1.400000000
H    -4.921000000    -4.258000000     1.025000000
O     4.584000000     1.113000000    -1.212000000
H     4.350000000     1.009000000    -2.134000000
H     3.790000000     1.452000000    -0.800000000
O    -1.898000000     6.493000000    -0.692000000
H    -1.462000000     6.834000000     0.089000000
H    -1.393000000     5.715000000    -0.927000000
O    -2.699000000     3.766000000     2.042000000
H    -2.569000000     2.854000000     2.302000000
H    -3.103000000     3.713000000     1.176000000
O    -2.752000000    -1.323000000    -2.061000000
H    -2.279000000    -2.099000000    -2.361000000
H    -2.268000000    -0.588000000    -2.437000000
O    -4.571000000     0.983000000     0.794000000
H    -4.304000000     1.773000000     0.324000000
H    -4.011000000     0.965000000     1.570000000
O    -1.514000000    -3.115000000     4.142000000
H    -1.709000000    -2.235000000     3.821000000
H    -0.898000000    -2.977000000     4.861000000
O    -1.315000000    -3.768000000    -3.107000000
H    -1.684000000    -4.488000000    -2.594000000
H    -1.997000000    -3.554000000    -3.744000000
O    -2.427000000     0.424000000     6.117000000
H    -2.058000000    -0.071000000     5.385000000
H    -2.889000000     1.153000000     5.704000000
O    -4.845000000    -0.868000000     3.729000000
H    -3.897000000    -0.901000000     3.598000000
H    -5.008000000     0.008000000     4.079000000
O    -4.365000000     2.310000000     4.568000000
H    -3.811000000     1.830000000     3.952000000
H    -5.212000000     2.375000000     4.127000000
O    -3.366000000    -6.100000000     0.487000000
H    -2.995000000    -5.313000000     0.885000000
H    -3.350000000    -6.753000000     1.187000000
O     5.368000000    -2.806000000     1.383000000
H     4.981000000    -1.949000000     1.206000000
H     6.210000000    -2.787000000     0.927000000
O     1.107000000    -4.282000000    -1.684000000
H     0.598000000    -4.829000000    -1.087000000
H     0.451000000    -3.785000000    -2.173000000
