161
-3044.85659
C     0.386000000     0.749000000     1.133000000
H     0.842000000     1.286000000     1.961000000
C     1.109000000     0.608000000    -0.021000000
H     2.097000000     1.044000000    -0.144000000
C     0.555000000    -0.101000000    -1.082000000
C     1.420000000    -0.237000000    -2.261000000
H     1.944000000    -1.191000000    -2.173000000
H     0.734000000    -0.251000000    -3.111000000
H     2.228000000     0.485000000    -2.400000000
C    -0.602000000    -0.807000000    -0.903000000
H    -0.896000000    -1.530000000    -1.660000000
C    -1.338000000    -0.667000000     0.278000000
H    -2.321000000    -1.116000000     0.396000000
C    -0.829000000     0.116000000     1.293000000
C    -1.562000000     0.439000000     2.564000000
O    -2.787000000     0.412000000     2.526000000
O    -0.980000000     0.755000000     3.598000000
O    -1.255000000     3.504000000     0.241000000
H    -1.873000000     4.196000000     0.475000000
H    -1.788000000     2.850000000    -0.212000000
O    -2.698000000     0.200000000    -3.672000000
H    -3.179000000    -0.470000000    -3.185000000
H    -2.504000000    -0.211000000    -4.515000000
O     1.330000000    -1.921000000    -6.686000000
H     1.968000000    -2.259000000    -7.314000000
H     1.860000000    -1.586000000    -5.963000000
O     2.148000000     2.322000000    -4.689000000
H     1.549000000     2.594000000    -5.384000000
H     2.182000000     1.368000000    -4.761000000
O     2.781000000     5.161000000     2.648000000
H     2.928000000     5.813000000     1.963000000
H     3.251000000     5.503000000     3.409000000
O     0.089000000     5.067000000     2.299000000
H    -0.083000000     4.330000000     1.713000000
H     1.018000000     4.988000000     2.517000000
O     4.892000000    -2.895000000     0.186000000
H     4.477000000    -2.178000000     0.664000000
H     5.061000000    -3.561000000     0.853000000
O    -6.018000000     0.789000000    -2.322000000
H    -5.476000000     0.320000000    -1.687000000
H    -6.796000000     0.240000000    -2.424000000
O    -0.538000000    -4.218000000     4.323000000
H    -0.367000000    -3.277000000     4.373000000
H    -1.077000000    -4.322000000     3.539000000
O    -4.741000000    -0.584000000     7.145000000
H    -4.287000000    -0.438000000     6.315000000
H    -4.600000000    -1.511000000     7.336000000
O     1.402000000     0.510000000    -8.161000000
H     1.519000000    -0.032000000    -7.381000000
H     1.933000000     0.081000000    -8.832000000
O     1.471000000     1.897000000     4.414000000
H     2.106000000     1.659000000     3.739000000
H     0.644000000     1.525000000     4.108000000
O    -4.108000000    -1.649000000    -2.349000000
H    -4.940000000    -2.086000000    -2.533000000
H    -3.499000000    -2.364000000    -2.164000000
O    -7.036000000     0.410000000     1.495000000
H    -7.286000000     0.665000000     2.383000000
H    -6.179000000     0.815000000     1.362000000
O     4.825000000    -1.997000000    -2.303000000
H     4.708000000    -2.035000000    -1.354000000
H     4.936000000    -2.911000000    -2.568000000
O    -1.718000000     2.953000000    -4.502000000
H    -1.825000000     2.017000000    -4.338000000
H    -0.824000000     3.037000000    -4.835000000
O    -1.401000000    -1.458000000    -5.759000000
H    -0.536000000    -1.584000000    -6.150000000
H    -1.939000000    -2.152000000    -6.139000000
O     4.547000000     3.014000000    -3.498000000
H     4.761000000     3.894000000    -3.809000000
H     3.800000000     2.746000000    -4.034000000
O    -0.817000000    -4.085000000     1.297000000
H    -1.072000000    -3.485000000     0.596000000
H     0.099000000    -4.293000000     1.114000000
O    -0.605000000     4.756000000    -2.388000000
H    -0.274000000     4.259000000    -1.640000000
H    -1.093000000     4.115000000    -2.905000000
O     3.300000000    -4.474000000    -2.308000000
H     2.969000000    -5.211000000    -2.821000000
H     2.766000000    -4.475000000    -1.514000000
O    -6.152000000    -3.705000000    -1.490000000
H    -5.577000000    -3.608000000    -0.731000000
H    -6.259000000    -4.651000000    -1.590000000
O    -3.753000000    -3.886000000     5.194000000
H    -3.064000000    -3.403000000     5.650000000
H    -3.912000000    -3.382000000     4.396000000
O     3.251000000     0.913000000     6.177000000
H     2.781000000     0.547000000     6.927000000
H     2.567000000     1.305000000     5.634000000
O    -4.735000000     3.619000000     2.724000000
H    -5.565000000     3.144000000     2.748000000
H    -4.076000000     2.943000000     2.565000000
O    -3.511000000    -4.911000000     1.173000000
H    -3.390000000    -4.351000000     0.406000000
H    -2.665000000    -4.891000000     1.620000000
O     5.838000000     0.647000000    -3.346000000
H     5.410000000    -0.062000000    -2.867000000
H     5.240000000     1.390000000    -3.259000000
O     1.369000000    -4.142000000    -4.492000000
H     2.184000000    -3.929000000    -4.039000000
H     1.186000000    -3.371000000    -5.031000000
O    -3.107000000     1.779000000    -1.257000000
H    -2.533000000     1.133000000    -1.669000000
H    -3.792000000     1.939000000    -1.906000000
O     3.334000000     2.158000000     2.461000000
H     4.267000000     2.336000000     2.342000000
H     2.906000000     2.998000000     2.298000000
O     2.212000000     3.679000000    -1.027000000
H     1.544000000     3.018000000    -0.846000000
H     2.631000000     3.381000000    -1.835000000
O     3.282000000    -0.999000000    -4.701000000
H     4.030000000    -1.035000000    -5.297000000
H     3.616000000    -1.352000000    -3.876000000
O     6.198000000     0.560000000     1.530000000
H     6.405000000     1.475000000     1.723000000
H     6.760000000     0.339000000     0.787000000
O    -6.763000000     0.667000000     4.804000000
H    -5.846000000     0.402000000     4.870000000
H    -6.740000000     1.623000000     4.851000000
O     3.646000000     5.990000000    -0.831000000
H     3.776000000     6.199000000    -1.757000000
H     3.021000000     5.265000000    -0.834000000
O    -2.909000000    -3.856000000    -1.514000000
H    -3.473000000    -4.271000000    -2.167000000
H    -2.091000000    -4.352000000    -1.554000000
O     5.812000000     3.373000000    -0.576000000
H     5.038000000     3.888000000    -0.805000000
H     6.313000000     3.319000000    -1.390000000
O    -4.605000000     1.315000000     0.909000000
H    -3.892000000     0.976000000     1.451000000
H    -4.277000000     1.247000000     0.012000000
O    -0.893000000    -4.651000000    -3.036000000
H    -0.550000000    -5.464000000    -2.664000000
H    -0.248000000    -4.399000000    -3.697000000
O    -3.940000000    -1.960000000     3.049000000
H    -4.827000000    -1.993000000     2.692000000
H    -3.547000000    -1.187000000     2.643000000
O    -2.082000000    -1.478000000     5.038000000
H    -2.747000000    -1.663000000     4.375000000
H    -1.740000000    -0.616000000     4.800000000
O    -6.410000000    -2.094000000     1.029000000
H    -7.275000000    -2.502000000     1.076000000
H    -6.589000000    -1.154000000     1.028000000
O    -2.067000000    -2.883000000     7.404000000
H    -1.194000000    -2.691000000     7.748000000
H    -2.203000000    -2.230000000     6.718000000
O    -1.861000000     2.488000000     5.332000000
H    -1.501000000     3.367000000     5.215000000
H    -1.520000000     1.989000000     4.591000000
O    -4.186000000     0.901000000     4.685000000
H    -3.557000000     1.534000000     5.032000000
H    -3.795000000     0.600000000     3.865000000
O     3.769000000    -0.759000000     1.921000000
H     3.034000000    -0.159000000     1.802000000
H     4.546000000    -0.219000000     1.776000000
O     1.589000000     3.495000000     6.861000000
H     2.538000000     3.371000000     6.898000000
H     1.354000000     3.273000000     5.961000000
O    -0.720000000     4.859000000     5.004000000
H    -0.039000000     4.757000000     4.339000000
H    -1.317000000     5.511000000     4.637000000
