161
-3012.39932
C     0.546000000    -0.517000000     1.216000000
H     1.086000000    -1.033000000     2.005000000
C     1.268000000    -0.322000000     0.033000000
H     2.295000000    -0.659000000    -0.084000000
C     0.587000000     0.245000000    -1.067000000
C     1.275000000     0.436000000    -2.393000000
H     0.735000000    -0.299000000    -2.995000000
H     1.242000000     1.425000000    -2.854000000
H     2.291000000     0.050000000    -2.288000000
C    -0.718000000     0.600000000    -0.917000000
H    -1.309000000     0.916000000    -1.773000000
C    -1.455000000     0.361000000     0.282000000
H    -2.502000000     0.649000000     0.335000000
C    -0.769000000    -0.204000000     1.366000000
C    -1.349000000    -0.450000000     2.699000000
O    -2.498000000    -0.110000000     2.893000000
O    -0.733000000    -1.081000000     3.542000000
O     2.757000000     1.033000000     2.924000000
H     2.470000000     1.615000000     2.221000000
H     2.888000000     0.187000000     2.495000000
O     3.440000000    -1.460000000    -4.627000000
H     3.013000000    -2.239000000    -4.984000000
H     3.163000000    -0.749000000    -5.206000000
O    -2.314000000    -2.906000000    -0.798000000
H    -1.773000000    -2.122000000    -0.702000000
H    -1.891000000    -3.404000000    -1.497000000
O     5.609000000     0.613000000    -0.270000000
H     6.283000000     1.106000000    -0.738000000
H     4.956000000     1.271000000    -0.028000000
O     5.131000000     0.357000000    -2.975000000
H     5.337000000    -0.133000000    -2.179000000
H     4.666000000    -0.270000000    -3.529000000
O    -5.605000000     0.663000000    -4.989000000
H    -6.381000000     1.061000000    -4.595000000
H    -4.873000000     1.180000000    -4.654000000
O    -2.919000000     5.128000000     2.524000000
H    -2.529000000     5.439000000     1.707000000
H    -2.480000000     4.296000000     2.698000000
O    -5.026000000     3.388000000     3.598000000
H    -5.590000000     4.021000000     4.042000000
H    -4.948000000     3.721000000     2.705000000
O     3.000000000     0.678000000    -6.208000000
H     3.091000000     1.603000000    -6.439000000
H     2.336000000     0.345000000    -6.813000000
O    -5.079000000     1.056000000     1.975000000
H    -4.438000000     0.363000000     2.133000000
H    -4.911000000     1.699000000     2.665000000
O     3.655000000    -2.723000000    -2.019000000
H     3.807000000    -3.660000000    -2.141000000
H     3.611000000    -2.369000000    -2.907000000
O    -3.465000000     1.542000000    -3.075000000
H    -4.215000000     1.913000000    -2.609000000
H    -3.625000000     0.598000000    -3.071000000
O    -7.356000000     1.446000000     0.255000000
H    -6.495000000     1.430000000     0.672000000
H    -7.973000000     1.299000000     0.972000000
O     0.772000000     2.747000000     4.027000000
H     1.318000000     2.245000000     3.422000000
H    -0.122000000     2.606000000     3.716000000
O     6.861000000     1.835000000    -4.493000000
H     6.727000000     1.635000000    -5.420000000
H     6.298000000     1.214000000    -4.031000000
O     5.789000000    -2.296000000    -0.398000000
H     5.693000000    -1.378000000    -0.143000000
H     4.991000000    -2.492000000    -0.889000000
O    -2.821000000    -4.637000000     5.858000000
H    -3.696000000    -4.486000000     6.215000000
H    -2.496000000    -3.763000000     5.642000000
O    -2.002000000     4.599000000    -2.500000000
H    -2.519000000     5.270000000    -2.945000000
H    -2.213000000     3.788000000    -2.963000000
O    -6.721000000     1.240000000     6.084000000
H    -5.880000000     0.984000000     5.704000000
H    -6.686000000     2.196000000     6.118000000
O    -0.112000000     1.775000000     6.604000000
H    -0.208000000     0.855000000     6.357000000
H     0.279000000     2.190000000     5.834000000
O     6.236000000    -0.469000000     3.738000000
H     7.032000000     0.063000000     3.747000000
H     5.707000000    -0.097000000     3.032000000
O    -2.992000000     2.426000000     6.149000000
H    -2.152000000     2.487000000     6.603000000
H    -3.534000000     3.102000000     6.556000000
O     2.671000000    -3.705000000     0.745000000
H     2.286000000    -4.419000000     0.236000000
H     2.522000000    -2.924000000     0.212000000
O    -1.779000000     5.819000000     0.011000000
H    -0.955000000     6.198000000     0.319000000
H    -1.561000000     5.430000000    -0.837000000
O    -6.372000000     2.003000000    -2.437000000
H    -7.045000000     2.581000000    -2.795000000
H    -6.694000000     1.771000000    -1.566000000
O     2.691000000    -5.324000000     3.267000000
H     3.205000000    -4.921000000     3.967000000
H     2.460000000    -4.595000000     2.691000000
O    -1.879000000     2.497000000     3.203000000
H    -2.313000000     2.319000000     4.038000000
H    -1.990000000     1.690000000     2.700000000
O     2.205000000    -3.531000000    -5.796000000
H     2.036000000    -4.376000000    -5.380000000
H     1.650000000    -3.532000000    -6.576000000
O     0.206000000    -3.473000000     3.851000000
H     0.533000000    -3.463000000     4.750000000
H    -0.107000000    -2.581000000     3.699000000
O    -4.540000000     0.402000000     4.742000000
H    -4.088000000     0.120000000     3.947000000
H    -3.905000000     0.957000000     5.195000000
O    -0.797000000    -5.043000000     1.807000000
H    -0.237000000    -4.346000000     2.147000000
H    -0.330000000    -5.374000000     1.041000000
O    -3.251000000    -3.641000000     2.612000000
H    -3.017000000    -2.732000000     2.799000000
H    -2.441000000    -4.035000000     2.287000000
O     4.082000000     3.037000000     0.364000000
H     4.009000000     3.588000000    -0.416000000
H     3.223000000     3.099000000     0.782000000
O     1.218000000     4.162000000    -4.614000000
H     0.913000000     4.518000000    -3.779000000
H     0.728000000     3.347000000    -4.721000000
O    -0.413000000     1.905000000    -5.432000000
H    -0.982000000     2.655000000    -5.605000000
H    -0.872000000     1.408000000    -4.755000000
O    -3.101000000    -1.132000000     8.295000000
H    -2.618000000    -1.575000000     8.993000000
H    -2.448000000    -0.981000000     7.611000000
O     1.517000000     2.709000000     1.192000000
H     1.363000000     3.410000000     0.558000000
H     0.754000000     2.138000000     1.108000000
O     3.917000000     5.512000000    -4.593000000
H     3.263000000     4.862000000    -4.338000000
H     3.714000000     5.710000000    -5.508000000
O    -4.992000000    -2.772000000    -1.259000000
H    -5.169000000    -2.106000000    -1.924000000
H    -4.037000000    -2.787000000    -1.184000000
O     0.571000000     0.684000000    -7.606000000
H    -0.041000000     0.002000000    -7.882000000
H     0.304000000     0.898000000    -6.712000000
O     4.185000000     0.362000000     5.438000000
H     3.620000000     0.554000000     4.689000000
H     5.071000000     0.363000000     5.075000000
O     3.443000000     2.797000000    -3.397000000
H     3.303000000     2.646000000    -4.332000000
H     3.803000000     1.972000000    -3.073000000
O     2.441000000     4.616000000    -1.319000000
H     2.640000000     4.005000000    -2.029000000
H     2.173000000     5.420000000    -1.763000000
O    -1.415000000    -1.024000000     6.179000000
H    -0.774000000    -1.694000000     6.418000000
H    -1.482000000    -1.086000000     5.226000000
O    -4.281000000    -1.162000000    -3.517000000
H    -3.650000000    -1.562000000    -4.116000000
H    -4.891000000    -0.695000000    -4.088000000
O    -6.240000000    -1.934000000     4.929000000
H    -5.608000000    -2.010000000     5.644000000
H    -6.256000000    -0.999000000     4.721000000
O     3.960000000    -1.658000000     2.132000000
H     4.864000000    -1.972000000     2.096000000
H     3.439000000    -2.389000000     1.799000000
O     0.620000000    -3.139000000     6.413000000
H     1.458000000    -2.684000000     6.331000000
H     0.778000000    -3.812000000     7.076000000
