161
-3041.37142
C    -0.737000000     0.660000000    -1.048000000
H    -1.202000000     1.081000000    -1.935000000
C     0.642000000     0.719000000    -0.878000000
H     1.309000000     1.337000000    -1.474000000
C     1.230000000     0.140000000     0.186000000
C     2.731000000     0.270000000     0.440000000
H     2.788000000     0.765000000     1.412000000
H     3.024000000    -0.781000000     0.473000000
H     3.204000000     0.802000000    -0.389000000
C     0.353000000    -0.511000000     1.119000000
H     0.833000000    -0.865000000     2.028000000
C    -0.985000000    -0.728000000     0.866000000
H    -1.631000000    -1.244000000     1.571000000
C    -1.544000000    -0.121000000    -0.233000000
C    -2.950000000    -0.401000000    -0.575000000
O    -3.542000000    -1.291000000    -0.003000000
O    -3.519000000     0.168000000    -1.562000000
O    -5.843000000    -0.766000000    -2.676000000
H    -5.895000000    -1.688000000    -2.930000000
H    -5.028000000    -0.700000000    -2.179000000
O     4.370000000     3.181000000    -1.167000000
H     4.157000000     2.812000000    -2.024000000
H     4.964000000     2.543000000    -0.772000000
O    -1.715000000     5.265000000    -2.340000000
H    -2.403000000     4.939000000    -2.920000000
H    -2.063000000     5.135000000    -1.458000000
O     5.844000000     2.995000000     3.130000000
H     6.527000000     3.442000000     3.629000000
H     6.134000000     2.084000000     3.089000000
O     4.410000000    -3.523000000    -1.610000000
H     4.227000000    -3.845000000    -0.727000000
H     5.077000000    -2.849000000    -1.486000000
O    -2.317000000    -4.297000000     3.414000000
H    -1.833000000    -3.818000000     4.086000000
H    -2.387000000    -5.188000000     3.757000000
O    -4.167000000    -2.179000000     2.560000000
H    -3.913000000    -1.798000000     1.719000000
H    -3.500000000    -2.844000000     2.733000000
O    -2.957000000    -6.323000000     0.650000000
H    -2.838000000    -5.551000000     0.097000000
H    -2.068000000    -6.590000000     0.884000000
O     5.386000000     5.358000000     0.542000000
H     5.032000000     4.673000000    -0.025000000
H     5.795000000     4.882000000     1.265000000
O    -1.198000000    -0.782000000     5.777000000
H    -1.413000000    -0.184000000     5.061000000
H    -0.350000000    -0.476000000     6.098000000
O    -6.938000000    -5.389000000    -0.090000000
H    -6.303000000    -5.805000000     0.492000000
H    -6.795000000    -4.450000000     0.031000000
O    -6.035000000     4.135000000    -2.730000000
H    -6.965000000     4.329000000    -2.853000000
H    -6.025000000     3.354000000    -2.176000000
O     5.678000000     1.567000000    -3.286000000
H     6.458000000     1.653000000    -2.738000000
H     5.706000000     0.664000000    -3.602000000
O    -6.006000000    -2.430000000    -0.208000000
H    -5.068000000    -2.237000000    -0.198000000
H    -6.258000000    -2.444000000     0.715000000
O    -4.445000000     0.267000000     3.495000000
H    -4.675000000    -0.641000000     3.297000000
H    -5.265000000     0.663000000     3.790000000
O     4.056000000     1.010000000     4.545000000
H     4.799000000     0.409000000     4.500000000
H     4.262000000     1.693000000     3.906000000
O    -3.374000000    -3.669000000    -3.572000000
H    -3.083000000    -3.110000000    -4.292000000
H    -4.320000000    -3.531000000    -3.529000000
O     1.199000000     3.623000000    -4.827000000
H     0.610000000     4.237000000    -5.266000000
H     0.688000000     2.817000000    -4.747000000
O    -3.427000000     4.799000000    -0.246000000
H    -3.991000000     4.027000000    -0.298000000
H    -4.027000000     5.524000000    -0.072000000
O    -5.193000000     2.201000000    -1.029000000
H    -5.730000000     1.589000000    -0.525000000
H    -4.414000000     1.697000000    -1.264000000
O    -6.302000000     0.318000000     0.699000000
H    -6.857000000    -0.098000000     1.359000000
H    -5.991000000    -0.407000000     0.157000000
O     6.021000000     1.722000000     0.584000000
H     6.169000000     0.847000000     0.944000000
H     6.013000000     2.297000000     1.350000000
O     0.297000000    -2.283000000    -5.734000000
H     0.910000000    -1.701000000    -6.182000000
H     0.255000000    -1.946000000    -4.840000000
O     0.437000000    -1.291000000    -3.313000000
H     1.331000000    -1.091000000    -3.038000000
H     0.103000000    -1.877000000    -2.634000000
O    -6.377000000     0.940000000    -4.926000000
H    -6.272000000     0.423000000    -4.127000000
H    -5.503000000     1.289000000    -5.101000000
O    -1.191000000    -3.416000000     5.706000000
H    -1.490000000    -3.707000000     6.568000000
H    -1.295000000    -2.465000000     5.725000000
O    -8.213000000     0.691000000    -1.545000000
H    -8.205000000     1.343000000    -2.245000000
H    -7.389000000     0.216000000    -1.650000000
O     4.116000000    -4.363000000     0.896000000
H     4.455000000    -5.256000000     0.963000000
H     4.749000000    -3.829000000     1.374000000
O     1.626000000     2.618000000     2.738000000
H     1.113000000     3.015000000     2.034000000
H     0.975000000     2.204000000     3.305000000
O     2.148000000     4.506000000     0.147000000
H     2.977000000     4.083000000     0.371000000
H     1.969000000     4.224000000    -0.749000000
O     6.011000000    -3.129000000     2.209000000
H     6.038000000    -2.534000000     2.957000000
H     6.621000000    -3.830000000     2.438000000
O    -0.013000000    -3.126000000    -0.456000000
H    -0.852000000    -3.444000000    -0.791000000
H    -0.216000000    -2.269000000    -0.080000000
O     3.054000000     0.922000000    -3.398000000
H     3.905000000     0.807000000    -2.975000000
H     3.245000000     0.881000000    -4.335000000
O    -3.606000000     4.415000000    -4.017000000
H    -3.564000000     3.573000000    -4.470000000
H    -4.490000000     4.446000000    -3.650000000
O    -1.953000000     0.958000000     3.881000000
H    -2.860000000     0.761000000     3.648000000
H    -1.617000000     1.455000000     3.135000000
O    -2.801000000     0.412000000    -4.028000000
H    -3.158000000     0.188000000    -3.168000000
H    -2.726000000    -0.427000000    -4.482000000
O     3.205000000     4.042000000     4.168000000
H     4.112000000     3.891000000     3.902000000
H     2.706000000     3.364000000     3.713000000
O    -0.185000000     1.143000000    -4.771000000
H     0.407000000     0.505000000    -4.373000000
H    -1.017000000     1.014000000    -4.317000000
O     1.072000000     4.856000000    -2.439000000
H     0.170000000     5.177000000    -2.439000000
H     1.085000000     4.180000000    -3.117000000
O     3.707000000    -2.348000000    -4.193000000
H     3.603000000    -2.682000000    -3.302000000
H     3.635000000    -3.123000000    -4.750000000
O     1.828000000    -0.413000000     5.547000000
H     2.391000000     0.225000000     5.109000000
H     1.749000000    -1.132000000     4.920000000
O     1.081000000    -2.822000000     4.267000000
H     1.059000000    -3.715000000     3.922000000
H     0.444000000    -2.825000000     4.981000000
O    -4.093000000     2.008000000    -5.672000000
H    -4.191000000     1.411000000    -6.414000000
H    -3.428000000     1.596000000    -5.120000000
O    -8.355000000    -2.517000000    -1.673000000
H    -8.249000000    -1.946000000    -2.434000000
H    -7.461000000    -2.758000000    -1.429000000
O    -0.990000000     2.569000000     1.601000000
H    -1.010000000     3.420000000     1.164000000
H    -0.820000000     1.942000000     0.898000000
O    -6.870000000    -2.989000000     2.787000000
H    -7.105000000    -3.770000000     3.288000000
H    -5.944000000    -2.847000000     2.986000000
O     6.360000000    -1.880000000    -0.361000000
H     6.255000000    -2.165000000     0.547000000
H     6.952000000    -1.130000000    -0.309000000
O    -2.460000000    -3.552000000    -1.155000000
H    -2.749000000    -3.475000000    -2.064000000
H    -2.882000000    -2.819000000    -0.707000000
