161
-3037.28262
C     0.865000000     0.541000000     1.049000000
H     1.669000000     0.893000000     1.690000000
C     1.318000000     0.038000000    -0.169000000
H     2.391000000     0.008000000    -0.342000000
C     0.414000000    -0.285000000    -1.151000000
C     0.854000000    -0.827000000    -2.440000000
H     1.862000000    -1.242000000    -2.500000000
H     0.165000000    -1.542000000    -2.895000000
H     0.765000000     0.010000000    -3.136000000
C    -0.990000000    -0.245000000    -0.856000000
H    -1.674000000    -0.582000000    -1.630000000
C    -1.464000000     0.091000000     0.420000000
H    -2.505000000     0.148000000     0.728000000
C    -0.490000000     0.426000000     1.436000000
C    -0.963000000     0.783000000     2.874000000
O    -2.126000000     0.764000000     3.224000000
O    -0.096000000     1.024000000     3.696000000
O    -1.384000000     1.277000000    -4.355000000
H    -0.599000000     1.268000000    -4.903000000
H    -1.567000000     0.354000000    -4.183000000
O    -2.071000000    -3.735000000    -0.621000000
H    -1.207000000    -3.672000000    -0.214000000
H    -2.527000000    -2.942000000    -0.337000000
O     2.403000000     1.525000000    -4.053000000
H     1.941000000     1.392000000    -4.880000000
H     3.061000000     0.830000000    -4.031000000
O    -0.753000000     3.161000000    -2.242000000
H    -0.711000000     2.543000000    -1.512000000
H    -1.213000000     2.684000000    -2.933000000
O    -0.090000000     5.045000000     3.595000000
H     0.288000000     4.189000000     3.794000000
H    -1.025000000     4.941000000     3.770000000
O     4.352000000     2.585000000     4.617000000
H     4.466000000     1.722000000     5.014000000
H     5.026000000     2.627000000     3.938000000
O     4.857000000    -2.855000000     2.635000000
H     5.199000000    -3.014000000     1.756000000
H     3.918000000    -2.717000000     2.506000000
O    -5.653000000     0.077000000     0.930000000
H    -5.024000000     0.592000000     0.425000000
H    -5.670000000     0.495000000     1.791000000
O     6.495000000    -0.048000000    -0.515000000
H     6.326000000    -0.093000000    -1.456000000
H     5.838000000     0.563000000    -0.182000000
O    -4.081000000     3.847000000    -3.422000000
H    -4.059000000     2.891000000    -3.375000000
H    -4.659000000     4.037000000    -4.161000000
O    -4.917000000     2.842000000     5.161000000
H    -5.580000000     3.445000000     4.827000000
H    -5.011000000     2.885000000     6.113000000
O     0.589000000     1.295000000    -6.304000000
H     0.027000000     0.803000000    -6.902000000
H     0.361000000     2.211000000    -6.459000000
O    -2.932000000    -1.365000000     7.933000000
H    -2.996000000    -0.806000000     7.159000000
H    -2.218000000    -0.985000000     8.445000000
O    -4.779000000     1.118000000     3.285000000
H    -3.861000000     0.855000000     3.210000000
H    -4.775000000     1.812000000     3.944000000
O    -4.043000000     2.269000000    -0.069000000
H    -3.293000000     2.765000000     0.260000000
H    -4.806000000     2.764000000     0.228000000
O    -0.616000000     2.489000000     6.060000000
H    -0.616000000     1.916000000     5.293000000
H    -1.377000000     2.208000000     6.568000000
O     3.865000000    -4.104000000     0.235000000
H     4.128000000    -5.019000000     0.134000000
H     4.612000000    -3.603000000    -0.093000000
O     4.848000000     0.002000000    -5.637000000
H     5.442000000    -0.736000000    -5.773000000
H     3.973000000    -0.371000000    -5.751000000
O    -5.022000000     1.198000000    -2.744000000
H    -4.589000000     1.540000000    -1.962000000
H    -4.772000000     0.274000000    -2.772000000
O     2.857000000     3.680000000    -2.591000000
H     2.756000000     3.459000000    -1.665000000
H     2.481000000     2.933000000    -3.057000000
O     1.043000000    -4.095000000    -2.147000000
H     1.050000000    -5.013000000    -1.878000000
H     1.582000000    -3.650000000    -1.493000000
O     0.425000000     4.064000000     7.985000000
H     0.174000000     3.514000000     7.243000000
H    -0.353000000     4.085000000     8.542000000
O     2.240000000    -3.703000000     2.271000000
H     2.663000000    -3.962000000     1.453000000
H     1.346000000    -3.476000000     2.017000000
O    -0.265000000    -1.546000000    -6.578000000
H    -0.967000000    -2.196000000    -6.577000000
H    -0.363000000    -1.088000000    -7.413000000
O    -4.870000000    -1.446000000    -2.367000000
H    -4.692000000    -1.726000000    -1.469000000
H    -5.334000000    -2.185000000    -2.760000000
O     2.935000000     3.066000000     0.449000000
H     2.938000000     3.048000000     1.406000000
H     2.079000000     3.428000000     0.219000000
O    -2.769000000    -2.703000000     2.590000000
H    -2.857000000    -3.494000000     3.122000000
H    -3.557000000    -2.196000000     2.784000000
O     6.534000000     0.107000000    -3.451000000
H     5.837000000    -0.202000000    -4.030000000
H     6.825000000     0.929000000    -3.845000000
O     0.670000000     4.566000000    -0.486000000
H     0.436000000     5.489000000    -0.579000000
H     0.158000000     4.119000000    -1.160000000
O    -4.794000000    -2.573000000     0.347000000
H    -5.248000000    -2.962000000     1.094000000
H    -4.579000000    -1.685000000     0.634000000
O    -2.586000000     4.299000000     4.203000000
H    -2.779000000     4.361000000     5.138000000
H    -2.827000000     3.403000000     3.967000000
O    -0.800000000    -4.070000000    -4.035000000
H    -1.110000000    -3.168000000    -4.111000000
H    -0.289000000    -4.081000000    -3.226000000
O     1.659000000    -4.333000000    -6.967000000
H     0.871000000    -4.789000000    -6.671000000
H     1.456000000    -3.405000000    -6.850000000
O    -0.584000000    -0.174000000     8.636000000
H    -1.126000000     0.422000000     8.118000000
H     0.311000000     0.005000000     8.348000000
O     6.417000000    -2.752000000     0.403000000
H     6.510000000    -1.812000000     0.249000000
H     7.290000000    -3.038000000     0.671000000
O     3.668000000    -2.554000000     5.372000000
H     3.639000000    -3.003000000     4.527000000
H     3.016000000    -1.858000000     5.296000000
O    -1.135000000    -5.112000000    -6.436000000
H    -1.908000000    -5.677000000    -6.456000000
H    -1.030000000    -4.882000000    -5.513000000
O    -4.569000000    -1.898000000     4.633000000
H    -5.152000000    -1.150000000     4.764000000
H    -5.150000000    -2.659000000     4.642000000
O    -1.067000000    -6.678000000    -3.193000000
H    -0.199000000    -6.884000000    -2.847000000
H    -0.947000000    -5.855000000    -3.667000000
O    -0.221000000    -2.588000000     1.769000000
H    -1.082000000    -2.633000000     2.186000000
H    -0.158000000    -1.689000000     1.448000000
O    -2.509000000    -0.399000000     5.481000000
H    -3.117000000    -1.067000000     5.163000000
H    -2.224000000     0.060000000     4.691000000
O     1.996000000     2.728000000     3.242000000
H     1.381000000     2.027000000     3.457000000
H     2.705000000     2.627000000     3.877000000
O     2.246000000    -1.109000000    -5.544000000
H     1.515000000    -1.008000000    -6.154000000
H     1.835000000    -1.138000000    -4.680000000
O    -2.195000000     3.536000000     1.307000000
H    -2.022000000     4.475000000     1.251000000
H    -1.495000000     3.196000000     1.864000000
O     5.523000000     2.625000000     0.012000000
H     4.636000000     2.776000000     0.339000000
H     5.533000000     3.038000000    -0.852000000
O     1.532000000    -0.570000000     5.046000000
H     0.940000000    -0.127000000     4.438000000
H     1.717000000     0.085000000     5.720000000
O    -2.591000000    -1.359000000    -4.214000000
H    -3.219000000    -1.255000000    -3.500000000
H    -3.130000000    -1.389000000    -5.004000000
O    -0.574000000    -2.441000000     5.901000000
H     0.308000000    -2.076000000     5.833000000
H    -1.154000000    -1.685000000     5.810000000
