161
-3043.29957
C     0.587000000    -0.357000000     1.251000000
H     1.221000000    -0.594000000     2.101000000
C     1.259000000    -0.324000000     0.033000000
H     2.341000000    -0.418000000     0.011000000
C     0.553000000     0.029000000    -1.057000000
C     1.258000000     0.060000000    -2.366000000
H     1.419000000     1.105000000    -2.642000000
H     2.242000000    -0.412000000    -2.333000000
H     0.636000000    -0.397000000    -3.137000000
C    -0.805000000     0.369000000    -0.963000000
H    -1.310000000     0.675000000    -1.875000000
C    -1.493000000     0.340000000     0.215000000
H    -2.535000000     0.641000000     0.293000000
C    -0.762000000     0.004000000     1.338000000
C    -1.361000000    -0.200000000     2.679000000
O    -2.444000000     0.289000000     2.864000000
O    -0.804000000    -0.803000000     3.585000000
O     2.012000000    -2.200000000    -4.527000000
H     2.148000000    -1.269000000    -4.352000000
H     1.078000000    -2.273000000    -4.725000000
O    -5.675000000     1.070000000    -0.413000000
H    -6.625000000     1.168000000    -0.346000000
H    -5.368000000     1.088000000     0.493000000
O     6.758000000     0.407000000     0.927000000
H     6.968000000     0.015000000     0.079000000
H     6.716000000     1.347000000     0.752000000
O     5.103000000    -0.513000000    -3.705000000
H     4.962000000    -1.344000000    -4.158000000
H     5.044000000     0.148000000    -4.394000000
O    -1.925000000     5.104000000     1.932000000
H    -1.352000000     4.638000000     1.324000000
H    -2.029000000     4.503000000     2.670000000
O    -6.208000000     1.550000000     4.206000000
H    -6.897000000     0.911000000     4.386000000
H    -6.460000000     2.324000000     4.709000000
O     3.065000000     0.528000000    -5.636000000
H     3.668000000     0.824000000    -6.318000000
H     2.310000000     1.112000000    -5.713000000
O    -4.504000000     1.576000000     1.941000000
H    -3.675000000     1.161000000     2.183000000
H    -5.084000000     1.401000000     2.682000000
O     4.647000000    -2.968000000    -4.846000000
H     4.503000000    -2.895000000    -5.789000000
H     3.788000000    -2.798000000    -4.459000000
O    -2.503000000     2.234000000    -5.196000000
H    -3.171000000     2.683000000    -4.677000000
H    -2.475000000     2.718000000    -6.021000000
O     4.204000000    -4.136000000    -1.946000000
H     4.675000000    -4.861000000    -1.535000000
H     4.277000000    -4.304000000    -2.885000000
O     0.960000000     4.083000000     3.675000000
H     1.049000000     4.412000000     2.781000000
H     0.293000000     3.400000000     3.615000000
O     6.928000000    -0.517000000    -1.611000000
H     7.793000000    -0.599000000    -2.014000000
H     6.319000000    -0.523000000    -2.350000000
O     3.774000000    -0.920000000     2.410000000
H     4.329000000    -0.618000000     1.691000000
H     4.283000000    -1.613000000     2.832000000
O     0.064000000     3.963000000    -2.905000000
H    -0.425000000     4.269000000    -3.670000000
H     0.752000000     3.405000000    -3.268000000
O    -0.123000000     3.945000000     0.034000000
H     0.817000000     3.767000000     0.059000000
H    -0.472000000     3.307000000    -0.588000000
O    -1.167000000    -3.032000000    -2.823000000
H    -2.074000000    -3.116000000    -3.118000000
H    -0.692000000    -2.725000000    -3.596000000
O    -2.405000000    -3.642000000     0.206000000
H    -2.509000000    -2.922000000    -0.415000000
H    -1.679000000    -4.158000000    -0.145000000
O    -4.033000000     3.646000000     4.969000000
H    -4.235000000     4.353000000     4.356000000
H    -4.775000000     3.046000000     4.895000000
O     3.275000000    -1.761000000    -7.146000000
H     3.089000000    -1.135000000    -6.447000000
H     3.952000000    -1.338000000    -7.674000000
O     4.256000000    -1.205000000     5.431000000
H     5.164000000    -0.963000000     5.611000000
H     3.890000000    -0.444000000     4.980000000
O     2.122000000    -3.075000000     1.587000000
H     1.683000000    -2.808000000     0.779000000
H     2.729000000    -2.360000000     1.777000000
O    -4.077000000    -0.363000000    -2.604000000
H    -4.526000000     0.276000000    -3.157000000
H    -4.276000000    -0.087000000    -1.709000000
O     3.664000000    -5.280000000     1.418000000
H     3.250000000    -5.350000000     0.557000000
H     3.579000000    -4.355000000     1.650000000
O    -1.694000000     2.905000000     3.636000000
H    -2.236000000     3.198000000     4.369000000
H    -1.931000000     1.986000000     3.515000000
O    -0.536000000    -2.537000000    -5.507000000
H    -1.187000000    -1.855000000    -5.340000000
H    -1.049000000    -3.340000000    -5.601000000
O    -2.752000000    -3.706000000     3.082000000
H    -2.083000000    -3.502000000     2.429000000
H    -2.993000000    -2.857000000     3.451000000
O    -4.714000000    -1.476000000     3.496000000
H    -4.113000000    -0.733000000     3.433000000
H    -4.982000000    -1.490000000     4.415000000
O     0.186000000     0.345000000     7.769000000
H    -0.149000000     0.445000000     8.660000000
H     0.103000000    -0.591000000     7.586000000
O     0.126000000    -5.125000000     2.024000000
H     0.001000000    -5.511000000     1.157000000
H     0.699000000    -4.373000000     1.871000000
O     4.881000000    -2.275000000     0.051000000
H     5.692000000    -1.854000000    -0.235000000
H     4.581000000    -2.763000000    -0.716000000
O     3.286000000    -3.575000000     4.817000000
H     3.674000000    -2.774000000     5.168000000
H     2.368000000    -3.350000000     4.666000000
O    -1.332000000    -5.631000000     4.507000000
H    -0.686000000    -5.752000000     3.812000000
H    -1.947000000    -4.988000000     4.153000000
O    -4.832000000    -3.453000000     1.367000000
H    -4.533000000    -2.774000000     1.971000000
H    -4.027000000    -3.812000000     0.993000000
O     3.162000000     1.160000000     4.107000000
H     3.324000000     0.595000000     3.352000000
H     2.214000000     1.124000000     4.234000000
O     2.139000000     5.943000000    -3.003000000
H     1.516000000     5.329000000    -2.614000000
H     1.611000000     6.711000000    -3.223000000
O     0.475000000    -4.202000000    -0.857000000
H     0.002000000    -3.890000000    -1.628000000
H     1.308000000    -4.523000000    -1.201000000
O    -2.500000000    -1.413000000     5.580000000
H    -1.687000000    -1.688000000     6.004000000
H    -2.233000000    -1.140000000     4.703000000
O     2.402000000     2.740000000     0.595000000
H     2.346000000     1.812000000     0.821000000
H     3.241000000     2.825000000     0.142000000
O    -5.044000000    -1.319000000     6.184000000
H    -4.104000000    -1.172000000     6.078000000
H    -5.191000000    -1.259000000     7.127000000
O     2.583000000     4.171000000    -5.217000000
H     1.804000000     4.254000000    -5.768000000
H     2.543000000     4.926000000    -4.630000000
O    -4.263000000     3.679000000    -0.038000000
H    -4.097000000     2.746000000    -0.173000000
H    -4.188000000     3.801000000     0.908000000
O     0.598000000     1.535000000    -5.684000000
H    -0.009000000     1.082000000    -5.098000000
H     0.282000000     2.438000000    -5.705000000
O     4.832000000     1.785000000    -0.823000000
H     5.540000000     2.397000000    -1.028000000
H     5.083000000     0.973000000    -1.262000000
O     0.400000000     1.091000000     4.820000000
H    -0.140000000     0.373000000     4.490000000
H     0.487000000     0.915000000     5.756000000
O    -2.121000000    -0.479000000    -4.522000000
H    -2.838000000    -0.471000000    -3.889000000
H    -2.340000000     0.217000000    -5.142000000
O     0.635000000    -2.822000000     4.178000000
H     0.924000000    -3.031000000     3.290000000
H     0.092000000    -2.040000000     4.075000000
O    -0.169000000    -2.321000000     6.860000000
H     0.498000000    -2.650000000     7.461000000
H     0.114000000    -2.625000000     5.998000000
