161
-3000.50132
C     0.852000000     0.001000000     1.233000000
H     1.555000000    -0.221000000     2.031000000
C     1.353000000    -0.025000000    -0.099000000
H     2.414000000     0.065000000    -0.315000000
C     0.465000000    -0.059000000    -1.124000000
C     0.966000000     0.036000000    -2.493000000
H     0.156000000    -0.013000000    -3.224000000
H     1.650000000     0.830000000    -2.799000000
H     1.532000000    -0.852000000    -2.780000000
C    -0.902000000    -0.037000000    -0.850000000
H    -1.523000000    -0.019000000    -1.742000000
C    -1.452000000     0.029000000     0.393000000
H    -2.517000000    -0.066000000     0.591000000
C    -0.578000000     0.022000000     1.435000000
C    -1.157000000     0.121000000     2.857000000
O    -2.339000000     0.221000000     3.043000000
O    -0.469000000    -0.029000000     3.848000000
O     2.615000000    -5.511000000    -4.133000000
H     3.337000000    -4.891000000    -4.025000000
H     2.002000000    -5.288000000    -3.432000000
O    -1.211000000    -3.376000000     6.674000000
H    -1.042000000    -3.131000000     5.765000000
H    -1.606000000    -2.596000000     7.063000000
O    -2.017000000    -4.687000000    -3.860000000
H    -1.366000000    -4.841000000    -3.176000000
H    -1.870000000    -3.781000000    -4.131000000
O     1.362000000     3.684000000    -6.594000000
H     0.668000000     3.696000000    -7.253000000
H     1.020000000     3.124000000    -5.897000000
O    -1.522000000     1.861000000    -4.591000000
H    -1.502000000     1.117000000    -5.192000000
H    -2.452000000     1.994000000    -4.404000000
O     2.300000000     3.133000000     4.040000000
H     2.347000000     2.600000000     4.834000000
H     3.212000000     3.230000000     3.763000000
O     5.326000000    -1.749000000     1.400000000
H     5.186000000    -2.348000000     0.666000000
H     4.648000000    -1.082000000     1.298000000
O    -4.703000000     0.813000000    -0.678000000
H    -5.635000000     0.840000000    -0.895000000
H    -4.470000000     1.726000000    -0.509000000
O     5.264000000     0.258000000    -2.279000000
H     5.424000000     0.581000000    -3.166000000
H     4.499000000     0.749000000    -1.979000000
O    -3.053000000     4.918000000     2.414000000
H    -2.215000000     4.543000000     2.686000000
H    -3.624000000     4.803000000     3.174000000
O    -4.106000000     2.161000000    -4.357000000
H    -4.763000000     1.905000000    -5.004000000
H    -4.555000000     2.794000000    -3.796000000
O    -6.050000000     1.244000000     4.664000000
H    -6.734000000     1.913000000     4.643000000
H    -6.118000000     0.859000000     5.538000000
O     0.259000000     0.576000000    -7.597000000
H     0.374000000     1.376000000    -8.110000000
H    -0.658000000     0.595000000    -7.326000000
O    -1.835000000    -0.918000000     7.726000000
H    -2.292000000    -0.401000000     7.063000000
H    -1.357000000    -0.272000000     8.246000000
O    -5.215000000     1.481000000     2.269000000
H    -4.305000000     1.216000000     2.139000000
H    -5.367000000     1.368000000     3.207000000
O     4.899000000     0.451000000     5.120000000
H     5.468000000     0.723000000     4.399000000
H     4.202000000    -0.050000000     4.698000000
O    -2.627000000    -1.492000000    -6.625000000
H    -3.551000000    -1.245000000    -6.603000000
H    -2.484000000    -1.805000000    -7.518000000
O    -5.057000000     3.570000000    -2.445000000
H    -4.182000000     3.461000000    -2.073000000
H    -5.645000000     3.537000000    -1.691000000
O    -0.379000000     2.082000000     5.561000000
H    -0.787000000     1.437000000     4.982000000
H    -0.405000000     1.677000000     6.427000000
O     4.645000000    -3.442000000    -0.572000000
H     4.358000000    -4.322000000    -0.815000000
H     4.077000000    -2.857000000    -1.074000000
O     0.041000000     3.220000000    -2.011000000
H    -0.040000000     2.344000000    -1.633000000
H    -0.488000000     3.186000000    -2.809000000
O     0.823000000    -4.657000000    -1.952000000
H     1.404000000    -5.012000000    -1.279000000
H     0.062000000    -4.338000000    -1.467000000
O     0.813000000    -3.210000000     1.266000000
H     0.054000000    -2.940000000     0.750000000
H     0.442000000    -3.551000000     2.079000000
O     2.405000000    -0.860000000    -6.618000000
H     1.801000000    -1.444000000    -6.158000000
H     1.838000000    -0.223000000    -7.052000000
O     2.170000000     4.335000000     0.577000000
H     2.114000000     3.632000000     1.225000000
H     1.263000000     4.487000000     0.310000000
O    -4.309000000    -3.927000000    -0.419000000
H    -4.126000000    -4.469000000     0.349000000
H    -5.009000000    -3.338000000    -0.135000000
O     5.620000000     1.218000000    -4.998000000
H     4.815000000     1.002000000    -5.469000000
H     5.811000000     2.121000000    -5.253000000
O     2.992000000    -4.512000000     2.547000000
H     2.586000000    -4.088000000     1.790000000
H     3.291000000    -5.359000000     2.215000000
O    -3.508000000    -1.199000000    -2.494000000
H    -3.645000000    -0.647000000    -1.724000000
H    -4.370000000    -1.570000000    -2.679000000
O    -4.263000000     3.820000000     5.025000000
H    -4.313000000     3.230000000     5.777000000
H    -4.943000000     3.507000000     4.429000000
O     1.098000000    -2.708000000    -4.918000000
H     0.331000000    -2.505000000    -4.382000000
H     1.844000000    -2.495000000    -4.357000000
O    -4.143000000    -4.690000000     4.169000000
H    -5.078000000    -4.808000000     4.337000000
H    -3.968000000    -3.781000000     4.415000000
O     4.134000000    -2.146000000    -3.143000000
H     4.528000000    -1.346000000    -2.794000000
H     4.829000000    -2.547000000    -3.665000000
O     3.308000000    -1.983000000     3.967000000
H     2.884000000    -2.538000000     3.313000000
H     2.662000000    -1.304000000     4.162000000
O    -3.330000000    -2.207000000     2.696000000
H    -3.093000000    -1.281000000     2.738000000
H    -4.266000000    -2.206000000     2.495000000
O     1.944000000     5.293000000    -2.959000000
H     1.869000000     4.340000000    -3.021000000
H     1.092000000     5.619000000    -3.248000000
O    -1.375000000    -3.325000000    -0.764000000
H    -2.316000000    -3.496000000    -0.774000000
H    -1.260000000    -2.584000000    -1.359000000
O    -4.445000000    -2.290000000     6.077000000
H    -5.342000000    -2.221000000     5.750000000
H    -4.058000000    -1.433000000     5.898000000
O    -3.169000000     0.124000000     5.540000000
H    -3.519000000     0.928000000     5.924000000
H    -2.896000000     0.378000000     4.659000000
O    -0.556000000     3.668000000     3.188000000
H    -0.119000000     2.889000000     3.533000000
H     0.104000000     4.359000000     3.247000000
O    -4.596000000     3.531000000     0.473000000
H    -4.051000000     4.135000000     0.978000000
H    -5.001000000     2.967000000     1.132000000
O     7.139000000     1.196000000    -0.539000000
H     6.735000000     0.945000000     0.291000000
H     6.480000000     0.980000000    -1.200000000
O     4.671000000     1.060000000     1.460000000
H     4.860000000     1.871000000     1.931000000
H     4.199000000     1.342000000     0.677000000
O     3.868000000     2.800000000    -1.215000000
H     3.344000000     3.473000000    -0.781000000
H     4.603000000     3.278000000    -1.597000000
O     1.580000000    -0.277000000     5.416000000
H     0.796000000    -0.167000000     4.878000000
H     1.897000000     0.614000000     5.563000000
O    -1.567000000    -2.148000000    -4.195000000
H    -2.203000000    -1.745000000    -3.603000000
H    -1.820000000    -1.839000000    -5.065000000
O    -0.989000000    -2.869000000     3.986000000
H    -0.668000000    -1.969000000     3.919000000
H    -1.869000000    -2.837000000     3.611000000
O     1.110000000    -1.633000000     7.862000000
H     1.190000000    -0.949000000     7.197000000
H     0.376000000    -2.171000000     7.565000000
