161
-3024.00053
C     0.058000000    -1.014000000     1.134000000
H     0.201000000    -1.847000000     1.817000000
C     1.020000000    -0.848000000     0.080000000
H     1.842000000    -1.559000000     0.079000000
C     0.852000000     0.133000000    -0.936000000
C     1.804000000     0.376000000    -2.133000000
H     1.361000000     0.177000000    -3.111000000
H     2.132000000     1.414000000    -2.038000000
H     2.622000000    -0.332000000    -1.990000000
C    -0.306000000     0.949000000    -0.855000000
H    -0.507000000     1.691000000    -1.623000000
C    -1.232000000     0.718000000     0.150000000
H    -2.108000000     1.361000000     0.167000000
C    -1.075000000    -0.239000000     1.153000000
C    -1.994000000    -0.333000000     2.364000000
O    -2.693000000     0.638000000     2.605000000
O    -1.975000000    -1.290000000     3.141000000
O    -1.435000000    -2.323000000    -2.263000000
H    -1.313000000    -1.627000000    -1.617000000
H    -2.230000000    -2.074000000    -2.736000000
O     1.680000000     2.012000000     2.617000000
H     2.195000000     1.880000000     3.413000000
H     1.798000000     1.204000000     2.117000000
O     2.709000000    -0.701000000    -5.028000000
H     3.141000000    -0.982000000    -4.221000000
H     2.384000000    -1.511000000    -5.420000000
O     0.510000000     0.351000000    -8.419000000
H     0.648000000     0.618000000    -7.510000000
H    -0.394000000     0.603000000    -8.608000000
O    -0.528000000     6.144000000    -0.234000000
H    -0.729000000     6.633000000     0.564000000
H     0.321000000     6.484000000    -0.516000000
O     0.664000000     0.506000000     6.445000000
H     0.813000000     1.357000000     6.032000000
H     0.548000000    -0.099000000     5.712000000
O    -4.399000000    -2.186000000     3.703000000
H    -4.556000000    -2.902000000     3.088000000
H    -3.619000000    -1.745000000     3.363000000
O     2.536000000    -3.696000000    -5.414000000
H     1.612000000    -3.937000000    -5.487000000
H     2.904000000    -4.338000000    -4.807000000
O    -1.377000000    -5.104000000    -2.079000000
H    -1.438000000    -4.155000000    -2.185000000
H    -2.135000000    -5.334000000    -1.541000000
O     4.104000000     0.139000000     4.071000000
H     4.352000000    -0.223000000     4.922000000
H     4.170000000    -0.601000000     3.468000000
O    -4.775000000    -0.295000000    -1.380000000
H    -4.564000000    -0.961000000    -2.034000000
H    -4.871000000    -0.783000000    -0.562000000
O     3.571000000     5.751000000    -2.654000000
H     4.122000000     5.045000000    -2.315000000
H     3.371000000     5.489000000    -3.552000000
O    -0.760000000     2.937000000     2.798000000
H     0.157000000     2.677000000     2.708000000
H    -1.225000000     2.119000000     2.971000000
O     0.722000000     3.774000000    -6.061000000
H    -0.234000000     3.723000000    -6.037000000
H     1.013000000     2.871000000    -5.939000000
O     3.019000000    -4.119000000     2.080000000
H     2.579000000    -4.112000000     1.230000000
H     3.709000000    -3.460000000     1.998000000
O    -4.103000000     4.080000000    -1.328000000
H    -3.441000000     4.643000000    -0.927000000
H    -4.698000000     3.862000000    -0.611000000
O     1.080000000    -4.463000000     0.010000000
H     0.987000000    -5.277000000    -0.485000000
H     1.215000000    -3.791000000    -0.658000000
O     0.843000000     1.126000000    -5.780000000
H     1.457000000     0.411000000    -5.614000000
H     0.051000000     0.876000000    -5.305000000
O    -1.393000000    -6.637000000     1.843000000
H    -1.530000000    -7.464000000     2.305000000
H    -0.713000000    -6.190000000     2.347000000
O     5.625000000    -0.484000000    -6.442000000
H     5.577000000    -0.721000000    -5.516000000
H     5.489000000    -1.308000000    -6.908000000
O     5.129000000    -1.366000000    -3.533000000
H     5.184000000    -0.452000000    -3.252000000
H     4.698000000    -1.815000000    -2.806000000
O    -4.806000000     4.353000000     4.555000000
H    -3.879000000     4.482000000     4.757000000
H    -4.806000000     3.794000000     3.778000000
O     5.460000000     1.196000000    -2.621000000
H     4.918000000     1.814000000    -2.130000000
H     6.233000000     1.702000000    -2.872000000
O    -4.238000000     2.939000000     2.470000000
H    -3.613000000     3.495000000     2.004000000
H    -3.740000000     2.152000000     2.691000000
O     1.973000000     3.367000000     0.109000000
H     1.623000000     2.969000000     0.906000000
H     1.425000000     3.018000000    -0.594000000
O    -3.596000000     0.859000000     5.078000000
H    -4.416000000     1.185000000     4.706000000
H    -3.154000000     0.432000000     4.344000000
O     0.709000000    -4.028000000     5.486000000
H     0.633000000    -4.723000000     6.140000000
H    -0.196000000    -3.807000000     5.265000000
O    -4.376000000    -1.352000000     6.368000000
H    -4.042000000    -0.533000000     6.001000000
H    -4.581000000    -1.891000000     5.603000000
O    -6.779000000     3.644000000     1.107000000
H    -6.039000000     3.481000000     1.692000000
H    -7.062000000     2.773000000     0.830000000
O    -1.940000000    -3.761000000     4.387000000
H    -2.677000000    -4.370000000     4.331000000
H    -2.239000000    -2.981000000     3.920000000
O    -4.746000000    -3.750000000     1.191000000
H    -3.840000000    -3.534000000     0.968000000
H    -5.043000000    -4.308000000     0.472000000
O    -1.610000000     5.449000000    -3.038000000
H    -1.609000000     4.492000000    -3.056000000
H    -1.453000000     5.672000000    -2.120000000
O     0.631000000    -1.515000000     4.452000000
H    -0.224000000    -1.540000000     4.023000000
H     1.019000000    -2.369000000     4.262000000
O    -1.824000000     2.840000000    -4.878000000
H    -1.475000000     1.968000000    -4.690000000
H    -2.754000000     2.695000000    -5.047000000
O    -6.629000000    -0.879000000     4.372000000
H    -5.844000000    -1.370000000     4.130000000
H    -7.184000000    -0.915000000     3.593000000
O     2.172000000     6.070000000    -0.317000000
H     2.581000000     5.913000000    -1.168000000
H     2.141000000     5.207000000     0.097000000
O     3.810000000    -3.193000000    -1.851000000
H     3.732000000    -3.842000000    -2.550000000
H     4.037000000    -3.703000000    -1.074000000
O    -2.497000000    -2.092000000     8.504000000
H    -1.831000000    -2.765000000     8.363000000
H    -2.772000000    -1.839000000     7.623000000
O     4.616000000     3.198000000    -0.866000000
H     3.824000000     3.082000000    -0.343000000
H     5.051000000     3.958000000    -0.479000000
O    -1.722000000     5.192000000     4.433000000
H    -1.580000000     4.395000000     3.922000000
H    -0.938000000     5.718000000     4.278000000
O     3.742000000     2.280000000    -5.575000000
H     4.670000000     2.365000000    -5.353000000
H     3.562000000     1.344000000    -5.496000000
O    -6.433000000     1.405000000    -2.822000000
H    -5.720000000     0.968000000    -2.357000000
H    -7.205000000     1.251000000    -2.277000000
O     5.043000000    -2.328000000     1.182000000
H     5.386000000    -1.441000000     1.068000000
H     5.514000000    -2.852000000     0.534000000
O    -2.483000000     4.545000000     1.315000000
H    -1.651000000     4.106000000     1.492000000
H    -2.234000000     5.425000000     1.033000000
O    -1.866000000    -3.674000000     1.169000000
H    -1.444000000    -3.101000000     1.808000000
H    -1.147000000    -3.999000000     0.627000000
O    -1.290000000     0.186000000    -4.446000000
H    -1.900000000    -0.350000000    -4.952000000
H    -1.047000000    -0.365000000    -3.702000000
O     1.485000000    -5.917000000     3.470000000
H     2.011000000    -5.203000000     3.111000000
H     0.909000000    -5.494000000     4.106000000
O     3.394000000     4.817000000    -5.449000000
H     2.540000000     5.004000000    -5.839000000
H     3.446000000     3.861000000    -5.435000000
