161
-3058.79494
C     0.421000000    -1.130000000     0.900000000
H     0.916000000    -1.954000000     1.407000000
C     1.119000000    -0.672000000    -0.241000000
H     2.023000000    -1.211000000    -0.511000000
C     0.694000000     0.419000000    -0.994000000
C     1.188000000     0.693000000    -2.303000000
H     1.144000000     1.762000000    -2.520000000
H     2.224000000     0.351000000    -2.341000000
H     0.641000000     0.066000000    -3.011000000
C    -0.557000000     1.045000000    -0.615000000
H    -0.887000000     1.914000000    -1.179000000
C    -1.220000000     0.628000000     0.580000000
H    -2.149000000     1.156000000     0.778000000
C    -0.769000000    -0.443000000     1.291000000
C    -1.413000000    -0.802000000     2.590000000
O    -2.393000000    -0.127000000     2.817000000
O    -0.990000000    -1.701000000     3.350000000
O    -4.160000000    -0.576000000    -6.186000000
H    -4.352000000     0.322000000    -6.459000000
H    -3.293000000    -0.523000000    -5.783000000
O    -2.156000000    -2.547000000    -2.104000000
H    -2.384000000    -2.344000000    -1.197000000
H    -2.004000000    -3.492000000    -2.107000000
O     1.430000000     1.685000000     4.297000000
H     0.584000000     1.776000000     4.735000000
H     1.460000000     0.769000000     4.021000000
O     4.839000000     0.627000000    -4.576000000
H     4.124000000    -0.002000000    -4.490000000
H     5.427000000     0.236000000    -5.222000000
O    -4.964000000    -0.472000000     3.262000000
H    -5.182000000    -1.133000000     2.605000000
H    -4.044000000    -0.266000000     3.098000000
O     2.787000000    -1.249000000    -4.848000000
H     2.669000000    -2.013000000    -5.412000000
H     2.679000000    -1.588000000    -3.959000000
O    -6.005000000    -2.290000000     1.507000000
H    -6.102000000    -2.712000000     2.361000000
H    -6.716000000    -2.652000000     0.979000000
O    -2.813000000     1.489000000    -3.029000000
H    -3.751000000     1.634000000    -3.153000000
H    -2.742000000     1.120000000    -2.148000000
O    -5.705000000     2.153000000     1.271000000
H    -5.034000000     1.634000000     0.826000000
H    -6.185000000     1.518000000     1.802000000
O     2.121000000     3.676000000     2.292000000
H     1.758000000     2.953000000     2.803000000
H     3.037000000     3.436000000     2.154000000
O     1.603000000    -0.162000000    -7.173000000
H     0.792000000     0.334000000    -7.059000000
H     1.966000000    -0.232000000    -6.291000000
O     4.372000000    -1.445000000     2.147000000
H     4.801000000    -0.656000000     2.478000000
H     5.031000000    -1.859000000     1.590000000
O    -1.776000000     3.996000000    -3.247000000
H    -2.362000000     4.624000000    -2.825000000
H    -2.276000000     3.180000000    -3.272000000
O     0.782000000    -2.504000000    -2.929000000
H     0.576000000    -3.426000000    -2.775000000
H     0.097000000    -2.024000000    -2.462000000
O    -0.912000000     0.976000000    -7.005000000
H    -1.077000000     0.541000000    -7.841000000
H    -1.121000000     0.315000000    -6.345000000
O    -2.768000000    -4.545000000     1.954000000
H    -2.163000000    -4.750000000     2.667000000
H    -3.607000000    -4.906000000     2.240000000
O     5.310000000    -2.106000000    -3.450000000
H     5.461000000    -2.260000000    -4.383000000
H     5.399000000    -1.159000000    -3.347000000
O    -2.977000000     4.912000000     4.592000000
H    -2.810000000     4.022000000     4.283000000
H    -3.928000000     4.957000000     4.691000000
O     3.743000000     1.988000000    -0.605000000
H     4.043000000     2.365000000     0.223000000
H     4.453000000     1.405000000    -0.874000000
O     5.840000000     4.614000000    -1.422000000
H     4.891000000     4.495000000    -1.439000000
H     6.157000000     4.118000000    -2.177000000
O    -5.439000000     1.842000000     4.928000000
H    -6.338000000     2.141000000     5.063000000
H    -5.525000000     1.076000000     4.361000000
O    -1.893000000     3.805000000     1.480000000
H    -1.647000000     4.729000000     1.445000000
H    -1.567000000     3.439000000     0.658000000
O    -2.140000000     2.421000000     3.717000000
H    -1.861000000     2.841000000     2.904000000
H    -2.222000000     1.494000000     3.492000000
O    -0.427000000    -4.228000000     3.423000000
H     0.462000000    -4.434000000     3.133000000
H    -0.438000000    -3.274000000     3.503000000
O    -3.091000000     1.756000000     6.268000000
H    -2.694000000     1.806000000     5.399000000
H    -4.026000000     1.889000000     6.112000000
O    -4.510000000     4.490000000     1.655000000
H    -3.611000000     4.184000000     1.534000000
H    -5.044000000     3.699000000     1.583000000
O    -1.456000000    -0.230000000     7.580000000
H    -1.628000000     0.619000000     7.173000000
H    -1.927000000    -0.858000000     7.032000000
O     4.419000000    -4.904000000     0.890000000
H     3.815000000    -5.205000000     1.569000000
H     3.857000000    -4.483000000     0.239000000
O    -4.172000000     0.290000000    -0.656000000
H    -3.752000000    -0.457000000    -0.230000000
H    -4.811000000    -0.102000000    -1.251000000
O     1.011000000    -0.974000000     4.859000000
H     0.266000000    -1.320000000     4.367000000
H     1.030000000    -1.493000000     5.663000000
O    -5.643000000    -3.905000000     3.887000000
H    -4.893000000    -3.957000000     4.480000000
H    -5.712000000    -4.782000000     3.510000000
O    -1.900000000    -5.171000000    -0.997000000
H    -2.155000000    -4.846000000    -0.134000000
H    -1.855000000    -6.121000000    -0.892000000
O    -3.457000000    -2.304000000     0.469000000
H    -2.916000000    -2.918000000     0.966000000
H    -4.345000000    -2.450000000     0.796000000
O     0.416000000     5.444000000    -2.171000000
H     0.458000000     5.004000000    -1.321000000
H    -0.408000000     5.145000000    -2.555000000
O     2.050000000     4.490000000    -4.256000000
H     2.673000000     4.073000000    -3.661000000
H     1.540000000     5.077000000    -3.697000000
O     3.566000000    -3.312000000    -1.659000000
H     4.026000000    -2.800000000    -2.325000000
H     2.665000000    -3.365000000    -1.979000000
O    -1.094000000     3.766000000    -6.005000000
H    -0.771000000     2.878000000    -6.160000000
H    -1.118000000     3.849000000    -5.052000000
O    -4.250000000    -0.720000000     7.523000000
H    -3.706000000    -0.879000000     6.751000000
H    -4.108000000     0.204000000     7.730000000
O     3.772000000     2.861000000    -3.097000000
H     3.610000000     2.395000000    -2.276000000
H     4.127000000     2.193000000    -3.685000000
O    -3.135000000     5.729000000    -1.709000000
H    -2.954000000     6.644000000    -1.922000000
H    -4.054000000     5.604000000    -1.947000000
O     0.023000000    -5.635000000     5.790000000
H    -0.230000000    -5.253000000     4.950000000
H     0.661000000    -5.020000000     6.151000000
O     1.011000000    -2.122000000     7.493000000
H     0.181000000    -1.646000000     7.523000000
H     0.909000000    -2.822000000     8.138000000
O     6.306000000     0.765000000    -1.861000000
H     7.131000000     1.228000000    -1.714000000
H     6.395000000    -0.045000000    -1.358000000
O     0.576000000     3.859000000    -0.039000000
H     0.623000000     3.023000000    -0.502000000
H     0.889000000     3.661000000     0.844000000
O    -2.797000000    -1.343000000     5.331000000
H    -2.042000000    -1.277000000     4.746000000
H    -3.555000000    -1.240000000     4.755000000
O    -1.956000000    -0.552000000    -4.902000000
H    -2.165000000    -0.044000000    -4.118000000
H    -1.479000000    -1.314000000    -4.573000000
O     2.464000000    -3.516000000     3.239000000
H     2.977000000    -4.043000000     3.852000000
H     3.073000000    -2.843000000     2.934000000
O    -3.181000000    -4.082000000     4.998000000
H    -2.448000000    -3.628000000     4.583000000
H    -3.074000000    -3.906000000     5.933000000
