161
-3018.31079
C     0.391000000    -0.848000000     1.144000000
H     0.659000000    -1.495000000     1.976000000
C     1.014000000    -0.867000000    -0.071000000
H     1.821000000    -1.586000000    -0.187000000
C     0.525000000    -0.054000000    -1.115000000
C     1.225000000     0.075000000    -2.485000000
H     2.143000000    -0.513000000    -2.532000000
H     0.531000000    -0.283000000    -3.248000000
H     1.477000000     1.109000000    -2.734000000
C    -0.477000000     0.828000000    -0.806000000
H    -0.903000000     1.516000000    -1.531000000
C    -1.140000000     0.816000000     0.350000000
H    -1.933000000     1.520000000     0.588000000
C    -0.661000000     0.018000000     1.408000000
C    -1.368000000    -0.067000000     2.704000000
O    -2.193000000     0.743000000     2.989000000
O    -1.113000000    -0.918000000     3.548000000
O     1.024000000     1.705000000     7.636000000
H     0.571000000     1.773000000     6.796000000
H     1.462000000     2.550000000     7.742000000
O    -1.259000000    -2.603000000    -1.143000000
H    -0.857000000    -2.187000000    -0.380000000
H    -2.112000000    -2.902000000    -0.831000000
O     1.728000000     2.903000000     3.154000000
H     1.734000000     3.765000000     3.569000000
H     1.434000000     2.307000000     3.843000000
O     4.522000000    -0.618000000    -5.267000000
H     4.846000000    -1.084000000    -4.496000000
H     3.721000000    -1.082000000    -5.508000000
O     0.778000000     4.437000000    -1.779000000
H     1.652000000     4.825000000    -1.813000000
H     0.802000000     3.859000000    -1.016000000
O    -4.503000000    -0.148000000     4.214000000
H    -4.085000000    -1.006000000     4.289000000
H    -3.951000000     0.334000000     3.598000000
O     1.983000000    -1.924000000    -5.402000000
H     1.174000000    -2.305000000    -5.743000000
H     2.314000000    -2.578000000    -4.785000000
O    -6.526000000    -1.836000000     3.628000000
H    -5.863000000    -1.168000000     3.800000000
H    -6.296000000    -2.185000000     2.767000000
O    -4.150000000     0.132000000    -0.272000000
H    -4.189000000    -0.226000000    -1.159000000
H    -3.647000000    -0.513000000     0.225000000
O    -6.441000000     0.933000000     1.052000000
H    -5.680000000     0.800000000     0.486000000
H    -7.188000000     0.936000000     0.454000000
O    -6.083000000     4.185000000    -0.082000000
H    -7.001000000     3.929000000    -0.177000000
H    -5.796000000     3.753000000     0.723000000
O     2.218000000     2.795000000     0.548000000
H     2.268000000     2.988000000     1.484000000
H     1.778000000     1.946000000     0.502000000
O     1.319000000     1.189000000    -5.761000000
H     0.365000000     1.263000000    -5.794000000
H     1.483000000     0.254000000    -5.645000000
O     3.152000000    -1.276000000     3.357000000
H     3.127000000    -0.438000000     2.896000000
H     3.560000000    -1.879000000     2.736000000
O    -3.843000000     2.718000000    -1.327000000
H    -4.669000000     3.193000000    -1.234000000
H    -3.843000000     2.092000000    -0.603000000
O     1.007000000    -4.272000000    -0.708000000
H     0.592000000    -4.997000000    -1.176000000
H     0.530000000    -3.495000000    -0.998000000
O    -2.085000000    -1.565000000    -6.111000000
H    -2.363000000    -2.365000000    -6.557000000
H    -1.783000000    -1.862000000    -5.252000000
O    -3.028000000    -5.052000000     2.234000000
H    -2.077000000    -4.984000000     2.157000000
H    -3.169000000    -5.799000000     2.815000000
O    -4.090000000     2.767000000     7.173000000
H    -4.349000000     3.366000000     6.472000000
H    -3.501000000     2.143000000     6.749000000
O     5.178000000    -1.899000000    -3.023000000
H     5.605000000    -2.739000000    -3.190000000
H     5.621000000    -1.555000000    -2.248000000
O    -4.286000000     4.846000000     4.851000000
H    -3.461000000     4.470000000     4.545000000
H    -4.962000000     4.336000000     4.406000000
O     4.593000000     1.080000000    -1.230000000
H     4.219000000     0.969000000    -0.356000000
H     5.346000000     0.489000000    -1.244000000
O    -6.701000000     1.540000000     4.685000000
H    -6.008000000     0.883000000     4.615000000
H    -7.508000000     1.057000000     4.507000000
O    -2.851000000     3.274000000     2.598000000
H    -2.208000000     3.502000000     1.926000000
H    -2.731000000     2.334000000     2.734000000
O    -2.367000000     1.553000000     5.734000000
H    -1.868000000     2.262000000     6.140000000
H    -2.259000000     1.692000000     4.793000000
O    -1.785000000    -3.331000000     6.886000000
H    -1.436000000    -2.480000000     6.619000000
H    -1.053000000    -3.937000000     6.769000000
O    -0.278000000    -3.900000000     3.155000000
H    -0.088000000    -3.910000000     4.093000000
H    -0.508000000    -2.990000000     2.967000000
O    -5.019000000    -0.390000000     7.149000000
H    -4.781000000    -0.448000000     6.224000000
H    -5.252000000    -1.286000000     7.393000000
O    -1.894000000     6.424000000     2.117000000
H    -2.366000000     5.950000000     1.432000000
H    -2.579000000     6.879000000     2.608000000
O    -5.592000000     3.474000000     2.478000000
H    -4.637000000     3.440000000     2.538000000
H    -5.870000000     2.562000000     2.561000000
O    -1.687000000    -0.802000000     6.314000000
H    -2.065000000     0.062000000     6.150000000
H    -1.475000000    -1.139000000     5.443000000
O    -1.930000000     4.315000000    -2.887000000
H    -2.444000000     4.315000000    -2.079000000
H    -1.024000000     4.421000000    -2.595000000
O     1.073000000     0.550000000     4.529000000
H     0.239000000     0.137000000     4.308000000
H     1.728000000    -0.127000000     4.361000000
O    -1.965000000     1.525000000    -3.956000000
H    -1.968000000     2.412000000    -3.596000000
H    -2.442000000     1.003000000    -3.311000000
O     4.065000000     3.762000000    -1.312000000
H     4.473000000     2.898000000    -1.367000000
H     3.262000000     3.617000000    -0.811000000
O     0.864000000     3.950000000    -5.136000000
H     0.943000000     3.265000000    -5.800000000
H     0.772000000     3.474000000    -4.311000000
O     3.780000000    -3.828000000    -0.298000000
H     3.752000000    -3.202000000    -1.022000000
H     2.914000000    -4.237000000    -0.302000000
O    -1.434000000     0.969000000    -6.363000000
H    -1.862000000     0.113000000    -6.343000000
H    -1.661000000     1.369000000    -5.523000000
O     4.232000000     0.655000000     1.676000000
H     4.548000000     1.540000000     1.861000000
H     5.027000000     0.126000000     1.612000000
O     4.269000000     1.831000000    -3.924000000
H     3.956000000     1.669000000    -3.035000000
H     4.085000000     1.018000000    -4.395000000
O    -0.260000000     4.165000000     1.383000000
H     0.421000000     3.616000000     1.770000000
H     0.127000000     5.040000000     1.349000000
O    -3.328000000    -2.366000000     3.848000000
H    -2.514000000    -1.887000000     3.690000000
H    -3.497000000    -2.828000000     3.027000000
O    -1.136000000    -2.938000000    -4.018000000
H    -1.232000000    -2.799000000    -3.076000000
H    -1.353000000    -3.861000000    -4.147000000
O     2.099000000    -5.558000000     3.140000000
H     1.757000000    -6.397000000     3.447000000
H     1.344000000    -5.119000000     2.749000000
O     3.049000000    -3.898000000     4.947000000
H     2.782000000    -4.553000000     4.302000000
H     3.258000000    -3.122000000     4.428000000
O    -4.035000000    -4.969000000     5.362000000
H    -3.796000000    -4.073000000     5.127000000
H    -3.280000000    -5.298000000     5.851000000
O     3.688000000     4.249000000    -4.990000000
H     2.786000000     4.271000000    -5.309000000
H     3.778000000     3.385000000    -4.588000000
O     3.831000000     1.292000000    -7.123000000
H     3.002000000     1.727000000    -6.923000000
H     4.038000000     0.797000000    -6.330000000
