161
-3056.12685
C     0.741000000    -0.042000000     1.342000000
H     1.111000000    -0.226000000     2.348000000
C     0.783000000    -1.038000000     0.359000000
H     1.264000000    -1.985000000     0.589000000
C     0.186000000    -0.815000000    -0.904000000
C     0.008000000    -1.972000000    -1.888000000
H    -0.732000000    -1.641000000    -2.620000000
H     0.906000000    -2.336000000    -2.393000000
H    -0.441000000    -2.798000000    -1.333000000
C    -0.411000000     0.383000000    -1.187000000
H    -0.908000000     0.606000000    -2.128000000
C    -0.493000000     1.301000000    -0.187000000
H    -1.055000000     2.226000000    -0.280000000
C     0.022000000     1.111000000     1.065000000
C    -0.092000000     2.187000000     2.093000000
O    -0.861000000     3.107000000     1.865000000
O    -0.032000000     1.931000000     3.262000000
O     0.903000000     4.779000000     0.328000000
H     0.229000000     4.280000000     0.790000000
H     1.371000000     4.126000000    -0.192000000
O    -1.204000000    -6.702000000    -1.855000000
H    -1.775000000    -7.263000000    -1.330000000
H    -1.806000000    -6.142000000    -2.346000000
O     1.935000000     7.293000000     0.505000000
H     1.636000000     6.384000000     0.529000000
H     1.985000000     7.553000000     1.425000000
O    -0.811000000    -0.668000000    -7.074000000
H    -1.538000000    -1.206000000    -6.760000000
H    -0.996000000    -0.534000000    -8.003000000
O     2.152000000     1.785000000    -3.016000000
H     1.224000000     1.659000000    -3.212000000
H     2.540000000     0.917000000    -3.125000000
O    -0.660000000     4.731000000     4.376000000
H     0.223000000     4.761000000     4.008000000
H    -1.192000000     4.326000000     3.691000000
O    -2.843000000    -1.739000000     0.695000000
H    -2.058000000    -2.285000000     0.669000000
H    -2.764000000    -1.242000000     1.509000000
O    -1.213000000     6.790000000    -0.171000000
H    -1.365000000     7.182000000    -1.031000000
H    -0.260000000     6.736000000    -0.097000000
O    -4.769000000     1.650000000    -1.226000000
H    -4.926000000     2.245000000    -0.493000000
H    -5.598000000     1.636000000    -1.705000000
O     3.515000000    -0.616000000    -3.403000000
H     3.396000000    -1.125000000    -4.205000000
H     4.309000000    -0.105000000    -3.560000000
O    -1.401000000     6.315000000     6.310000000
H    -1.693000000     5.541000000     6.792000000
H    -1.167000000     5.983000000     5.443000000
O    -1.704000000    -4.510000000     0.124000000
H    -1.227000000    -4.300000000     0.927000000
H    -1.143000000    -5.136000000    -0.332000000
O    -0.630000000     2.874000000     6.529000000
H    -1.050000000     2.252000000     5.934000000
H    -0.163000000     3.479000000     5.953000000
O     5.620000000     0.958000000     0.189000000
H     6.527000000     0.730000000     0.393000000
H     5.143000000     0.132000000     0.268000000
O     3.365000000    -1.996000000     6.341000000
H     4.222000000    -1.882000000     5.929000000
H     2.991000000    -1.116000000     6.363000000
O    -2.399000000     2.021000000     4.468000000
H    -3.229000000     2.090000000     3.996000000
H    -1.732000000     2.047000000     3.783000000
O     2.777000000    -4.569000000    -5.846000000
H     3.208000000    -4.830000000    -6.660000000
H     3.494000000    -4.453000000    -5.222000000
O    -0.240000000     1.178000000    -4.634000000
H    -1.178000000     1.250000000    -4.457000000
H    -0.190000000     0.906000000    -5.551000000
O    -2.329000000     4.233000000    -2.638000000
H    -2.531000000     4.061000000    -1.718000000
H    -1.387000000     4.402000000    -2.649000000
O     4.139000000     4.752000000     0.738000000
H     3.594000000     4.115000000     0.275000000
H     4.057000000     5.555000000     0.224000000
O     2.243000000     0.653000000     6.498000000
H     1.916000000     0.690000000     7.397000000
H     2.034000000     1.512000000     6.131000000
O    -3.846000000     5.691000000     3.799000000
H    -3.078000000     5.130000000     3.906000000
H    -4.127000000     5.885000000     4.693000000
O    -4.663000000     2.167000000     3.098000000
H    -4.728000000     2.227000000     2.145000000
H    -4.800000000     1.240000000     3.290000000
O     3.067000000    -6.404000000     1.029000000
H     2.698000000    -6.731000000     0.208000000
H     2.309000000    -6.100000000     1.528000000
O    -2.597000000     4.509000000     0.096000000
H    -2.165000000     3.987000000     0.772000000
H    -2.008000000     5.250000000    -0.047000000
O     2.223000000     2.779000000     4.538000000
H     2.829000000     2.787000000     3.797000000
H     1.371000000     2.585000000     4.148000000
O    -4.412000000    -4.419000000    -0.271000000
H    -3.526000000    -4.745000000    -0.116000000
H    -4.287000000    -3.518000000    -0.569000000
O     1.770000000    -3.305000000     4.294000000
H     2.395000000    -3.140000000     3.589000000
H     2.120000000    -2.821000000     5.042000000
O     4.390000000     2.513000000     2.800000000
H     4.990000000     2.839000000     3.470000000
H     4.956000000     2.286000000     2.061000000
O    -2.868000000    -2.325000000    -6.633000000
H    -3.356000000    -2.074000000    -5.848000000
H    -3.540000000    -2.621000000    -7.247000000
O    -3.951000000    -1.097000000    -1.570000000
H    -4.065000000    -0.148000000    -1.513000000
H    -3.600000000    -1.349000000    -0.716000000
O    -2.437000000    -1.422000000     3.569000000
H    -3.344000000    -1.296000000     3.845000000
H    -1.915000000    -1.082000000     4.295000000
O    -3.013000000    -5.374000000    -3.418000000
H    -3.269000000    -5.822000000    -4.224000000
H    -3.531000000    -4.569000000    -3.416000000
O    -0.152000000    -5.168000000    -4.747000000
H    -0.739000000    -4.616000000    -4.231000000
H     0.174000000    -4.590000000    -5.437000000
O     1.441000000    -5.784000000    -1.528000000
H     0.591000000    -6.102000000    -1.833000000
H     1.360000000    -4.831000000    -1.543000000
O    -4.428000000    -3.128000000    -3.314000000
H    -4.060000000    -2.535000000    -2.660000000
H    -5.368000000    -2.947000000    -3.300000000
O     4.748000000    -3.767000000    -4.096000000
H     5.182000000    -3.172000000    -4.706000000
H     4.852000000    -3.351000000    -3.240000000
O     3.664000000    -1.177000000    -0.051000000
H     2.884000000    -1.000000000    -0.575000000
H     4.141000000    -1.841000000    -0.549000000
O     0.156000000     5.174000000    -2.831000000
H     0.293000000     4.924000000    -3.745000000
H     0.860000000     5.794000000    -2.644000000
O     2.526000000     2.866000000    -0.590000000
H     2.471000000     2.096000000    -0.024000000
H     2.532000000     2.511000000    -1.479000000
O     2.269000000     5.152000000     5.835000000
H     2.122000000     4.255000000     5.538000000
H     3.212000000     5.201000000     5.993000000
O     1.900000000    -1.780000000    -6.254000000
H     1.008000000    -1.525000000    -6.492000000
H     1.833000000    -2.711000000    -6.040000000
O    -3.938000000     0.113000000     6.462000000
H    -4.341000000     0.667000000     7.131000000
H    -3.230000000     0.647000000     6.104000000
O    -0.255000000    -0.259000000     5.019000000
H    -0.265000000     0.608000000     4.612000000
H     0.569000000    -0.286000000     5.504000000
O    -3.467000000     1.734000000    -3.574000000
H    -3.162000000     2.614000000    -3.350000000
H    -3.959000000     1.448000000    -2.805000000
O    -0.832000000    -3.209000000     2.355000000
H    -1.268000000    -2.507000000     2.837000000
H     0.033000000    -3.276000000     2.758000000
O    -5.220000000     3.584000000     0.599000000
H    -5.732000000     4.356000000     0.841000000
H    -4.327000000     3.795000000     0.870000000
O     3.504000000    -2.561000000     2.429000000
H     3.439000000    -2.312000000     1.508000000
H     4.097000000    -1.914000000     2.811000000
