161
-3008.96237
C    -1.041000000    -0.930000000     0.546000000
H    -1.814000000    -1.634000000     0.844000000
C    -0.827000000    -0.603000000    -0.790000000
H    -1.346000000    -1.167000000    -1.560000000
C     0.247000000     0.134000000    -1.183000000
C     0.444000000     0.514000000    -2.636000000
H    -0.500000000     0.970000000    -2.940000000
H     1.365000000     1.033000000    -2.911000000
H     0.434000000    -0.425000000    -3.193000000
C     1.129000000     0.666000000    -0.265000000
H     1.928000000     1.303000000    -0.634000000
C     0.743000000     0.580000000     1.084000000
H     1.250000000     1.198000000     1.821000000
C    -0.270000000    -0.283000000     1.542000000
C    -0.516000000    -0.439000000     3.044000000
O     0.228000000     0.164000000     3.726000000
O    -1.448000000    -1.088000000     3.507000000
O     3.903000000     0.779000000     4.651000000
H     2.992000000     0.895000000     4.921000000
H     3.973000000     1.266000000     3.830000000
O    -5.269000000    -1.874000000     7.485000000
H    -6.143000000    -1.515000000     7.335000000
H    -4.873000000    -1.912000000     6.614000000
O    -3.369000000    -3.765000000    -3.754000000
H    -3.342000000    -3.753000000    -2.797000000
H    -4.233000000    -4.120000000    -3.964000000
O     2.445000000     4.893000000     3.060000000
H     2.085000000     4.178000000     3.584000000
H     2.199000000     4.678000000     2.160000000
O    -0.457000000     1.465000000    -6.647000000
H    -1.304000000     1.910000000    -6.628000000
H     0.185000000     2.169000000    -6.548000000
O     2.880000000     1.692000000    -5.370000000
H     2.157000000     2.293000000    -5.547000000
H     2.458000000     0.847000000    -5.218000000
O    -3.866000000    -2.217000000     4.955000000
H    -3.472000000    -2.508000000     4.132000000
H    -3.447000000    -2.757000000     5.625000000
O     0.568000000     4.818000000    -2.071000000
H     1.208000000     5.516000000    -1.934000000
H    -0.247000000     5.166000000    -1.709000000
O    -4.163000000    -4.236000000    -1.038000000
H    -3.390000000    -4.361000000    -0.488000000
H    -4.435000000    -3.334000000    -0.867000000
O     1.660000000    -4.570000000    -5.585000000
H     1.189000000    -5.332000000    -5.922000000
H     1.436000000    -4.541000000    -4.655000000
O    -1.370000000     3.300000000     7.299000000
H    -0.532000000     2.978000000     7.631000000
H    -1.302000000     3.207000000     6.349000000
O     3.498000000    -1.643000000    -3.784000000
H     2.852000000    -1.827000000    -3.102000000
H     3.112000000    -0.932000000    -4.295000000
O    -4.757000000    -1.536000000    -0.425000000
H    -4.414000000    -0.809000000    -0.945000000
H    -4.590000000    -1.281000000     0.483000000
O     1.578000000     0.552000000     6.235000000
H     0.840000000     0.193000000     5.743000000
H     2.090000000    -0.214000000     6.494000000
O    -4.810000000     2.648000000    -5.310000000
H    -5.375000000     3.420000000    -5.347000000
H    -4.699000000     2.477000000    -4.375000000
O    -3.940000000    -0.466000000    -3.412000000
H    -3.982000000     0.455000000    -3.152000000
H    -3.195000000    -0.512000000    -4.011000000
O     1.122000000     3.710000000    -6.711000000
H     0.559000000     3.997000000    -7.430000000
H     1.978000000     4.087000000    -6.913000000
O    -3.859000000    -0.889000000     2.141000000
H    -3.027000000    -0.923000000     2.614000000
H    -3.951000000     0.029000000     1.885000000
O    -1.519000000     4.283000000     4.216000000
H    -2.162000000     4.835000000     4.662000000
H    -1.994000000     3.918000000     3.469000000
O    -0.537000000    -1.570000000     6.209000000
H    -1.114000000    -1.031000000     6.750000000
H    -0.871000000    -1.459000000     5.319000000
O     2.160000000     3.854000000     0.633000000
H     2.690000000     3.864000000    -0.164000000
H     1.271000000     4.044000000     0.333000000
O     1.169000000     2.681000000     7.881000000
H     1.614000000     3.478000000     7.594000000
H     1.340000000     2.047000000     7.184000000
O     1.020000000     2.766000000     4.108000000
H     0.988000000     1.811000000     4.159000000
H     0.178000000     3.053000000     4.461000000
O     0.418000000    -2.895000000    -7.148000000
H     0.918000000    -2.946000000    -7.963000000
H     0.846000000    -3.523000000    -6.565000000
O     4.406000000    -0.761000000     6.845000000
H     5.340000000    -0.956000000     6.770000000
H     4.156000000    -0.452000000     5.974000000
O     4.599000000     3.824000000    -1.725000000
H     4.884000000     3.088000000    -2.267000000
H     5.084000000     3.720000000    -0.907000000
O     3.787000000    -0.663000000     0.296000000
H     4.716000000    -0.507000000     0.125000000
H     3.438000000     0.198000000     0.524000000
O    -1.738000000     2.478000000    -0.883000000
H    -1.034000000     3.103000000    -1.053000000
H    -1.299000000     1.724000000    -0.488000000
O    -1.912000000    -1.415000000    -5.678000000
H    -1.241000000    -1.863000000    -6.192000000
H    -2.567000000    -2.089000000    -5.498000000
O    -1.994000000    -3.751000000     2.780000000
H    -1.820000000    -2.912000000     3.205000000
H    -1.753000000    -4.406000000     3.435000000
O    -6.217000000    -2.672000000     2.964000000
H    -5.325000000    -2.423000000     2.720000000
H    -6.313000000    -3.568000000     2.641000000
O    -2.006000000    -5.973000000    -3.355000000
H    -2.554000000    -5.203000000    -3.510000000
H    -1.120000000    -5.622000000    -3.265000000
O    -3.947000000     1.698000000     0.959000000
H    -3.268000000     2.255000000     0.578000000
H    -4.377000000     2.255000000     1.608000000
O     2.296000000    -2.824000000     0.104000000
H     2.749000000    -2.002000000     0.292000000
H     1.810000000    -2.650000000    -0.702000000
O    -3.900000000     2.090000000    -2.516000000
H    -3.042000000     2.146000000    -2.096000000
H    -4.498000000     2.505000000    -1.894000000
O     5.586000000     1.187000000    -6.462000000
H     6.113000000     1.135000000    -5.664000000
H     4.699000000     1.366000000    -6.153000000
O     3.965000000     2.120000000     1.766000000
H     4.806000000     2.261000000     1.331000000
H     3.376000000     2.758000000     1.363000000
O    -0.921000000     4.001000000    -4.630000000
H    -0.415000000     3.871000000    -5.432000000
H    -0.265000000     4.196000000    -3.961000000
O     1.209000000    -2.966000000    -2.488000000
H     0.318000000    -2.675000000    -2.684000000
H     1.114000000    -3.888000000    -2.253000000
O     2.512000000     4.289000000     6.100000000
H     3.331000000     4.567000000     6.512000000
H     2.770000000     4.007000000     5.223000000
O     1.343000000    -3.326000000     7.283000000
H     1.058000000    -3.472000000     8.185000000
H     0.632000000    -2.825000000     6.885000000
O    -1.858000000    -5.120000000     0.394000000
H    -2.062000000    -4.604000000     1.174000000
H    -0.902000000    -5.153000000     0.372000000
O     1.303000000    -0.494000000    -5.754000000
H     0.677000000     0.164000000    -6.054000000
H     0.996000000    -1.313000000    -6.143000000
O     1.886000000    -2.355000000     3.528000000
H     2.734000000    -2.144000000     3.137000000
H     1.356000000    -1.570000000     3.389000000
O     0.741000000    -4.401000000     1.740000000
H     1.221000000    -4.065000000     0.983000000
H     0.966000000    -3.801000000     2.452000000
O    -5.356000000     0.335000000     5.035000000
H    -4.760000000    -0.414000000     5.000000000
H    -5.214000000     0.792000000     4.206000000
O    -2.475000000    -3.712000000     6.658000000
H    -1.833000000    -4.370000000     6.927000000
H    -2.937000000    -3.484000000     7.465000000
O    -2.465000000     5.549000000    -3.214000000
H    -2.465000000     5.233000000    -2.310000000
H    -1.854000000     4.971000000    -3.670000000
