161
-3030.75164
C    -1.003000000     0.640000000    -0.865000000
H    -1.549000000     1.160000000    -1.648000000
C     0.129000000     1.261000000    -0.396000000
H     0.341000000     2.292000000    -0.670000000
C     1.020000000     0.572000000     0.416000000
C     2.338000000     1.173000000     0.740000000
H     2.910000000     1.528000000    -0.120000000
H     2.073000000     2.003000000     1.398000000
H     2.921000000     0.512000000     1.385000000
C     0.789000000    -0.808000000     0.656000000
H     1.564000000    -1.310000000     1.230000000
C    -0.463000000    -1.353000000     0.324000000
H    -0.604000000    -2.400000000     0.576000000
C    -1.350000000    -0.705000000    -0.444000000
C    -2.650000000    -1.359000000    -0.859000000
O    -2.880000000    -2.538000000    -0.547000000
O    -3.588000000    -0.663000000    -1.170000000
O    -5.385000000    -1.071000000    -2.964000000
H    -4.892000000    -0.977000000    -3.779000000
H    -4.728000000    -0.979000000    -2.274000000
O    -0.261000000     4.674000000    -2.232000000
H    -0.652000000     4.484000000    -3.084000000
H    -0.923000000     4.398000000    -1.597000000
O     5.294000000    -0.083000000    -1.059000000
H     5.802000000    -0.238000000    -0.263000000
H     5.662000000    -0.690000000    -1.701000000
O     3.813000000    -1.011000000     3.767000000
H     3.173000000    -0.466000000     4.226000000
H     4.633000000    -0.520000000     3.828000000
O     0.253000000    -4.661000000     1.601000000
H    -0.543000000    -4.888000000     1.121000000
H     0.770000000    -5.467000000     1.601000000
O     3.463000000    -3.202000000     2.145000000
H     2.555000000    -3.460000000     1.988000000
H     3.410000000    -2.547000000     2.841000000
O    -2.122000000     3.067000000     1.216000000
H    -1.227000000     2.758000000     1.081000000
H    -2.021000000     3.969000000     1.522000000
O    -1.179000000    -2.981000000     3.425000000
H    -0.671000000    -3.591000000     2.891000000
H    -0.700000000    -2.155000000     3.368000000
O    -5.096000000    -4.882000000     1.847000000
H    -4.363000000    -5.442000000     2.102000000
H    -5.269000000    -5.116000000     0.935000000
O    -4.117000000    -2.268000000     2.162000000
H    -4.436000000    -3.170000000     2.159000000
H    -3.819000000    -2.116000000     1.265000000
O    -4.616000000    -6.467000000    -0.329000000
H    -3.733000000    -6.684000000    -0.627000000
H    -5.095000000    -7.295000000    -0.378000000
O    -2.865000000     3.925000000    -1.288000000
H    -3.454000000     3.487000000    -1.901000000
H    -3.042000000     3.507000000    -0.445000000
O    -6.224000000    -3.184000000    -0.066000000
H    -5.980000000    -2.917000000     0.820000000
H    -5.598000000    -2.734000000    -0.633000000
O     6.538000000    -0.078000000     4.078000000
H     6.400000000     0.246000000     3.187000000
H     7.430000000     0.194000000     4.296000000
O    -0.546000000     3.929000000     4.093000000
H    -0.262000000     4.391000000     4.882000000
H    -1.480000000     3.771000000     4.231000000
O    -1.818000000    -4.917000000    -0.180000000
H    -2.102000000    -4.044000000    -0.449000000
H    -1.853000000    -5.438000000    -0.983000000
O    -7.120000000    -3.068000000    -3.997000000
H    -6.330000000    -2.940000000    -3.473000000
H    -7.437000000    -2.182000000    -4.174000000
O     2.684000000    -1.446000000    -1.402000000
H     2.210000000    -1.011000000    -0.693000000
H     3.572000000    -1.093000000    -1.349000000
O    -0.965000000     6.344000000     0.262000000
H    -1.796000000     6.728000000     0.542000000
H    -1.184000000     5.848000000    -0.527000000
O    -0.751000000    -0.027000000     3.602000000
H    -0.197000000     0.556000000     4.122000000
H    -0.699000000     0.324000000     2.713000000
O     7.199000000     0.401000000     0.990000000
H     7.927000000     0.725000000     1.519000000
H     7.264000000     0.888000000     0.169000000
O    -2.984000000     1.488000000    -5.375000000
H    -2.733000000     0.596000000    -5.136000000
H    -3.217000000     1.432000000    -6.301000000
O    -6.221000000     3.016000000    -0.046000000
H    -5.541000000     2.348000000    -0.132000000
H    -6.939000000     2.699000000    -0.594000000
O    -4.400000000     1.064000000     0.599000000
H    -4.074000000     0.475000000    -0.082000000
H    -3.610000000     1.424000000     1.003000000
O     3.788000000     1.027000000    -3.921000000
H     4.534000000     1.293000000    -3.384000000
H     3.209000000     1.789000000    -3.923000000
O    -4.973000000     2.067000000    -3.475000000
H    -4.827000000     1.205000000    -3.084000000
H    -4.970000000     1.905000000    -4.418000000
O     4.440000000     3.753000000     4.249000000
H     5.100000000     4.431000000     4.393000000
H     4.070000000     3.958000000     3.390000000
O    -7.346000000    -0.224000000    -1.264000000
H    -6.544000000    -0.333000000    -1.776000000
H    -8.029000000    -0.628000000    -1.800000000
O     1.638000000     2.274000000     4.384000000
H     2.366000000     2.814000000     4.075000000
H     0.913000000     2.890000000     4.492000000
O     6.597000000     4.340000000     1.137000000
H     5.960000000     4.102000000     1.810000000
H     7.438000000     4.350000000     1.596000000
O     5.623000000     2.271000000    -2.332000000
H     5.574000000     1.539000000    -1.717000000
H     6.484000000     2.658000000    -2.174000000
O    -1.194000000     3.291000000    -4.487000000
H    -1.979000000     2.750000000    -4.575000000
H    -0.555000000     2.882000000    -5.070000000
O     0.637000000     4.360000000     1.532000000
H     0.068000000     5.028000000     1.150000000
H     0.510000000     4.450000000     2.477000000
O    -0.731000000    -0.831000000    -5.167000000
H    -1.368000000    -1.493000000    -5.436000000
H    -0.037000000    -1.329000000    -4.734000000
O     1.103000000     1.354000000    -5.806000000
H     1.246000000     1.909000000    -5.039000000
H     0.606000000     0.607000000    -5.471000000
O    -1.770000000    -6.203000000    -2.695000000
H    -1.370000000    -7.062000000    -2.557000000
H    -1.691000000    -6.050000000    -3.636000000
O     1.882000000     3.095000000    -3.789000000
H     2.344000000     3.931000000    -3.863000000
H     1.045000000     3.319000000    -3.381000000
O     2.739000000    -4.126000000    -2.785000000
H     3.586000000    -4.318000000    -3.187000000
H     2.942000000    -3.510000000    -2.081000000
O     1.774000000     0.162000000     5.568000000
H     1.782000000     1.061000000     5.240000000
H     1.101000000     0.162000000     6.249000000
O     0.725000000    -2.386000000    -3.510000000
H     1.008000000    -1.876000000    -2.751000000
H     1.155000000    -3.235000000    -3.401000000
O     3.637000000     4.198000000     1.708000000
H     2.888000000     3.677000000     1.419000000
H     3.776000000     4.830000000     1.002000000
O     5.456000000    -4.495000000     0.171000000
H     5.427000000    -5.196000000     0.822000000
H     4.877000000    -3.819000000     0.522000000
O     1.966000000     5.211000000    -0.745000000
H     1.614000000     4.880000000     0.081000000
H     1.324000000     4.945000000    -1.403000000
O    -6.481000000    -0.524000000     1.446000000
H    -5.810000000     0.146000000     1.317000000
H    -6.902000000    -0.609000000     0.590000000
O    -3.278000000     0.534000000     3.276000000
H    -3.808000000    -0.112000000     2.810000000
H    -2.497000000     0.051000000     3.549000000
O    -4.630000000    -3.902000000    -2.378000000
H    -4.932000000    -4.480000000    -1.678000000
H    -3.918000000    -3.399000000    -1.984000000
O    -3.129000000    -4.341000000     4.578000000
H    -2.634000000    -3.611000000     4.205000000
H    -2.954000000    -5.075000000     3.988000000
O    -2.390000000    -5.931000000     2.378000000
H    -1.962000000    -6.777000000     2.248000000
H    -2.353000000    -5.509000000     1.520000000
