161
-3026.45946
C     0.051000000     1.069000000     1.031000000
H     0.093000000     1.946000000     1.672000000
C    -0.888000000     0.979000000    -0.040000000
H    -1.692000000     1.706000000    -0.127000000
C    -0.766000000    -0.032000000    -0.972000000
C    -1.833000000    -0.234000000    -2.073000000
H    -2.460000000     0.649000000    -2.211000000
H    -1.377000000    -0.410000000    -3.049000000
H    -2.420000000    -1.119000000    -1.814000000
C     0.245000000    -0.985000000    -0.803000000
H     0.444000000    -1.642000000    -1.646000000
C     1.207000000    -0.892000000     0.239000000
H     1.937000000    -1.695000000     0.298000000
C     1.052000000     0.107000000     1.171000000
C     1.885000000     0.171000000     2.417000000
O     2.730000000    -0.715000000     2.662000000
O     1.788000000     1.104000000     3.242000000
O     7.355000000    -3.285000000     2.757000000
H     6.456000000    -3.081000000     3.013000000
H     7.815000000    -2.447000000     2.810000000
O    -1.510000000    -2.804000000     1.771000000
H    -2.325000000    -2.304000000     1.743000000
H    -0.821000000    -2.140000000     1.732000000
O    -2.164000000     0.298000000    -6.315000000
H    -2.428000000    -0.323000000    -5.637000000
H    -1.509000000    -0.173000000    -6.830000000
O     0.375000000     5.104000000    -2.868000000
H     0.267000000     5.842000000    -2.267000000
H     0.879000000     4.461000000    -2.369000000
O     3.235000000    -4.679000000     2.009000000
H     2.479000000    -4.147000000     1.759000000
H     2.925000000    -5.582000000     1.941000000
O     1.323000000    -1.104000000    -5.072000000
H     0.691000000    -0.764000000    -5.705000000
H     1.487000000    -0.370000000    -4.480000000
O    -2.151000000     3.306000000    -5.769000000
H    -2.624000000     3.582000000    -4.984000000
H    -2.191000000     2.349000000    -5.749000000
O    -6.588000000     2.461000000    -1.319000000
H    -6.488000000     3.288000000    -1.791000000
H    -7.155000000     1.932000000    -1.880000000
O    -3.576000000     3.587000000    -3.480000000
H    -4.372000000     4.119000000    -3.514000000
H    -3.077000000     3.951000000    -2.749000000
O     0.670000000    -4.220000000     0.751000000
H     0.024000000    -3.514000000     0.795000000
H     0.149000000    -5.022000000     0.771000000
O     3.875000000     3.039000000     6.074000000
H     4.097000000     2.122000000     6.236000000
H     4.322000000     3.520000000     6.771000000
O    -1.148000000    -3.737000000    -2.209000000
H    -1.171000000    -4.255000000    -3.013000000
H    -1.513000000    -2.888000000    -2.460000000
O    -5.128000000     1.402000000    -4.291000000
H    -5.588000000     1.562000000    -5.116000000
H    -4.451000000     2.078000000    -4.260000000
O     3.836000000    -1.971000000     6.495000000
H     3.687000000    -2.857000000     6.165000000
H     3.527000000    -1.398000000     5.792000000
O     1.524000000    -4.781000000    -4.495000000
H     1.789000000    -4.463000000    -3.632000000
H     2.112000000    -5.515000000    -4.670000000
O    -2.054000000    -1.074000000     6.521000000
H    -1.540000000    -0.995000000     7.325000000
H    -1.574000000    -0.552000000     5.879000000
O    -3.618000000    -2.533000000    -6.315000000
H    -4.510000000    -2.633000000    -6.647000000
H    -3.063000000    -2.900000000    -7.003000000
O     2.086000000     3.091000000    -1.403000000
H     1.545000000     2.950000000    -0.626000000
H     2.902000000     2.626000000    -1.214000000
O     2.750000000     0.116000000     8.538000000
H     2.981000000     0.167000000     7.610000000
H     3.487000000     0.528000000     8.991000000
O     2.496000000     0.217000000     5.534000000
H     1.960000000     0.787000000     6.085000000
H     2.329000000     0.521000000     4.642000000
O     6.448000000    -1.330000000     5.452000000
H     5.642000000    -1.626000000     5.875000000
H     6.499000000    -1.845000000     4.647000000
O     1.680000000    -2.610000000     4.279000000
H     1.273000000    -2.067000000     4.955000000
H     2.021000000    -1.982000000     3.642000000
O     4.774000000     1.359000000     3.436000000
H     5.149000000     0.815000000     2.744000000
H     4.220000000     0.761000000     3.937000000
O    -4.012000000    -3.713000000    -0.322000000
H    -4.410000000    -3.082000000    -0.922000000
H    -3.910000000    -3.232000000     0.499000000
O    -3.290000000    -6.253000000    -1.167000000
H    -3.389000000    -5.331000000    -0.929000000
H    -3.924000000    -6.389000000    -1.871000000
O    -3.802000000     3.663000000     2.274000000
H    -4.521000000     3.235000000     1.809000000
H    -4.056000000     3.624000000     3.196000000
O     0.834000000     5.629000000     4.774000000
H     1.435000000     5.691000000     5.516000000
H     1.101000000     4.832000000     4.315000000
O     4.987000000     3.176000000     1.427000000
H     5.909000000     2.925000000     1.381000000
H     4.621000000     2.620000000     2.115000000
O     3.787000000    -4.328000000     5.474000000
H     2.925000000    -4.408000000     5.066000000
H     4.401000000    -4.595000000     4.790000000
O     5.283000000    -2.781000000    -0.255000000
H     6.218000000    -2.616000000    -0.382000000
H     5.243000000    -3.672000000     0.093000000
O    -5.001000000    -3.790000000    -4.129000000
H    -4.192000000    -3.669000000    -4.626000000
H    -5.066000000    -3.005000000    -3.585000000
O     2.409000000     3.632000000     3.823000000
H     2.304000000     2.784000000     3.391000000
H     2.747000000     3.418000000     4.692000000
O     4.731000000    -0.224000000    -4.398000000
H     5.588000000    -0.188000000    -3.973000000
H     4.267000000    -0.926000000    -3.942000000
O     7.110000000     0.956000000     1.333000000
H     7.706000000     0.216000000     1.216000000
H     6.309000000     0.692000000     0.880000000
O     0.600000000    -5.012000000     4.942000000
H    -0.320000000    -5.001000000     4.680000000
H     0.972000000    -4.224000000     4.545000000
O    -4.943000000     0.076000000    -0.270000000
H    -5.836000000     0.034000000     0.071000000
H    -4.939000000     0.847000000    -0.838000000
O    -2.139000000     5.298000000    -1.795000000
H    -1.306000000     5.218000000    -2.260000000
H    -2.096000000     6.155000000    -1.371000000
O    -3.720000000    -1.514000000     1.394000000
H    -4.295000000    -1.584000000     2.156000000
H    -4.247000000    -1.058000000     0.737000000
O     4.695000000     0.006000000     0.771000000
H     4.107000000    -0.402000000     1.407000000
H     4.775000000    -0.642000000     0.070000000
O    -5.121000000    -1.157000000    -3.120000000
H    -5.188000000    -0.398000000    -3.700000000
H    -4.863000000    -0.789000000    -2.275000000
O    -0.870000000     0.928000000     4.902000000
H    -0.044000000     0.585000000     4.559000000
H    -0.999000000     1.753000000     4.435000000
O    -1.380000000     3.241000000     3.898000000
H    -0.987000000     4.009000000     3.484000000
H    -2.183000000     3.085000000     3.400000000
O    -1.212000000    -4.910000000    -4.597000000
H    -1.284000000    -5.574000000    -5.283000000
H    -0.316000000    -4.583000000    -4.673000000
O     1.244000000     4.524000000     0.997000000
H     1.810000000     4.586000000     1.767000000
H     0.757000000     5.348000000     0.992000000
O     3.951000000    -2.299000000    -2.554000000
H     3.124000000    -2.757000000    -2.404000000
H     4.436000000    -2.405000000    -1.735000000
O     0.868000000     1.225000000    -3.573000000
H     1.505000000     1.799000000    -3.998000000
H     0.639000000     1.679000000    -2.762000000
O     1.779000000    -3.751000000    -1.943000000
H     0.827000000    -3.795000000    -2.035000000
H     1.932000000    -3.814000000    -1.000000000
O     4.835000000    -2.656000000     2.825000000
H     4.205000000    -1.961000000     3.013000000
H     4.318000000    -3.338000000     2.395000000
