161
-3040.45833
C    -0.405000000    -0.484000000     1.328000000
H    -0.856000000    -0.932000000     2.210000000
C    -0.971000000    -0.912000000     0.134000000
H    -1.731000000    -1.683000000     0.031000000
C    -0.518000000    -0.354000000    -1.077000000
C    -1.060000000    -0.768000000    -2.406000000
H    -1.834000000    -1.537000000    -2.344000000
H    -1.686000000     0.056000000    -2.753000000
H    -0.274000000    -1.013000000    -3.124000000
C     0.522000000     0.576000000    -0.992000000
H     0.893000000     1.081000000    -1.880000000
C     1.098000000     0.959000000     0.216000000
H     1.935000000     1.652000000     0.228000000
C     0.625000000     0.396000000     1.385000000
C     1.323000000     0.855000000     2.661000000
O     2.028000000     1.827000000     2.699000000
O     0.906000000     0.279000000     3.681000000
O    -1.973000000     2.683000000     1.139000000
H    -1.650000000     3.444000000     1.622000000
H    -1.962000000     1.971000000     1.779000000
O     1.960000000     4.335000000     3.553000000
H     2.287000000     4.188000000     4.440000000
H     1.948000000     3.465000000     3.154000000
O     4.563000000     2.051000000     2.494000000
H     3.634000000     1.850000000     2.609000000
H     4.874000000     1.393000000     1.872000000
O    -0.212000000     3.104000000    -6.292000000
H     0.194000000     2.276000000    -6.548000000
H     0.407000000     3.493000000    -5.674000000
O    -1.018000000     4.613000000     2.544000000
H    -0.307000000     4.546000000     3.180000000
H    -1.015000000     5.532000000     2.277000000
O    -2.028000000     0.359000000    -6.275000000
H    -2.695000000    -0.207000000    -5.886000000
H    -2.394000000     0.614000000    -7.122000000
O    -5.456000000     2.245000000    -5.125000000
H    -5.034000000     1.886000000    -4.345000000
H    -4.733000000     2.568000000    -5.662000000
O     3.881000000    -2.163000000    -2.248000000
H     3.542000000    -2.510000000    -3.073000000
H     4.047000000    -2.939000000    -1.712000000
O    -3.804000000    -3.339000000     2.384000000
H    -3.801000000    -3.598000000     1.463000000
H    -4.642000000    -2.892000000     2.505000000
O    -4.611000000     0.241000000     3.765000000
H    -3.863000000     0.738000000     3.435000000
H    -4.272000000    -0.221000000     4.532000000
O     3.465000000    -1.578000000    -5.229000000
H     3.125000000    -0.721000000    -5.485000000
H     2.696000000    -2.058000000    -4.921000000
O    -4.499000000     1.033000000    -2.862000000
H    -3.845000000     0.362000000    -3.056000000
H    -4.476000000     1.122000000    -1.910000000
O    -0.538000000    -3.662000000     1.358000000
H    -1.482000000    -3.593000000     1.498000000
H    -0.341000000    -4.588000000     1.501000000
O     1.829000000    -3.387000000    -3.589000000
H     1.723000000    -3.198000000    -2.656000000
H     1.006000000    -3.802000000    -3.845000000
O     3.142000000    -4.689000000     4.793000000
H     2.940000000    -3.808000000     4.480000000
H     2.386000000    -4.934000000     5.327000000
O    -2.975000000    -0.738000000     5.817000000
H    -2.023000000    -0.821000000     5.759000000
H    -3.182000000    -0.986000000     6.718000000
O    -4.351000000    -5.372000000    -3.507000000
H    -4.965000000    -5.604000000    -2.810000000
H    -3.486000000    -5.488000000    -3.114000000
O    -6.171000000     1.303000000     0.725000000
H    -5.568000000     0.577000000     0.887000000
H    -6.774000000     0.970000000     0.061000000
O     0.509000000     5.359000000     0.032000000
H     0.852000000     4.859000000     0.773000000
H    -0.409000000     5.096000000    -0.030000000
O    -6.706000000    -0.238000000    -3.725000000
H    -6.030000000     0.305000000    -3.319000000
H    -7.516000000     0.021000000    -3.286000000
O     3.415000000     4.357000000     1.039000000
H     2.972000000     4.655000000     1.833000000
H     3.869000000     3.557000000     1.304000000
O    -0.642000000    -2.924000000    -7.918000000
H    -1.591000000    -2.824000000    -7.996000000
H    -0.362000000    -2.164000000    -7.409000000
O    -3.722000000     2.761000000    -0.681000000
H    -4.453000000     2.605000000    -0.082000000
H    -2.942000000     2.684000000    -0.132000000
O    -0.529000000    -4.394000000    -5.011000000
H    -0.381000000    -3.596000000    -5.519000000
H    -1.335000000    -4.761000000    -5.373000000
O     2.645000000     1.672000000     5.452000000
H     2.137000000     1.647000000     4.640000000
H     3.484000000     1.274000000     5.222000000
O    -1.789000000    -5.505000000    -2.503000000
H    -1.304000000    -5.903000000    -1.780000000
H    -1.126000000    -5.033000000    -3.006000000
O    -3.566000000     4.804000000    -2.534000000
H    -3.353000000     4.041000000    -1.997000000
H    -4.519000000     4.875000000    -2.482000000
O    -0.152000000    -0.348000000     6.054000000
H     0.174000000    -0.260000000     5.158000000
H     0.352000000     0.294000000     6.556000000
O    -1.575000000     1.398000000     3.598000000
H    -0.721000000     0.968000000     3.631000000
H    -1.530000000     2.073000000     4.274000000
O     3.573000000     3.528000000    -2.005000000
H     3.903000000     3.798000000    -1.148000000
H     3.683000000     2.577000000    -2.015000000
O     0.443000000    -1.350000000    -5.633000000
H     1.289000000    -0.966000000    -5.865000000
H    -0.169000000    -0.615000000    -5.661000000
O    -0.416000000     3.188000000    -2.280000000
H    -1.318000000     3.187000000    -2.600000000
H    -0.453000000     2.700000000    -1.458000000
O    -3.925000000    -4.205000000    -0.534000000
H    -4.656000000    -4.815000000    -0.632000000
H    -3.186000000    -4.648000000    -0.951000000
O     4.334000000    -0.727000000     5.214000000
H     4.220000000    -0.975000000     6.132000000
H     3.548000000    -1.057000000     4.778000000
O     2.388000000    -2.217000000     3.868000000
H     2.882000000    -2.331000000     3.057000000
H     1.785000000    -1.497000000     3.682000000
O    -4.131000000    -1.117000000    -5.122000000
H    -4.292000000    -1.817000000    -5.755000000
H    -4.828000000    -1.215000000    -4.474000000
O    -2.867000000     2.987000000    -5.815000000
H    -1.962000000     3.261000000    -5.965000000
H    -2.818000000     2.035000000    -5.730000000
O    -5.222000000    -1.131000000    -0.309000000
H    -6.130000000    -1.422000000    -0.230000000
H    -4.760000000    -1.885000000    -0.676000000
O     3.405000000    -1.498000000     1.199000000
H     3.789000000    -0.740000000     0.758000000
H     2.558000000    -1.621000000     0.771000000
O     6.184000000     2.899000000     4.543000000
H     5.527000000     2.704000000     3.875000000
H     5.680000000     3.024000000     5.346000000
O     1.633000000    -3.255000000    -0.735000000
H     0.952000000    -3.220000000    -0.063000000
H     2.105000000    -4.068000000    -0.556000000
O     1.417000000     3.770000000    -4.187000000
H     0.718000000     3.631000000    -3.549000000
H     2.217000000     3.524000000    -3.724000000
O     4.105000000     0.552000000    -2.496000000
H     3.856000000     0.735000000    -3.402000000
H     3.974000000    -0.391000000    -2.397000000
O    -2.532000000    -4.360000000     4.614000000
H    -1.714000000    -4.787000000     4.361000000
H    -2.874000000    -3.994000000     3.799000000
O    -0.003000000    -3.065000000     6.394000000
H     0.017000000    -2.123000000     6.558000000
H    -0.923000000    -3.258000000     6.214000000
O     5.109000000     0.710000000     0.058000000
H     4.895000000     0.768000000    -0.873000000
H     6.064000000     0.655000000     0.082000000
O     1.693000000     1.867000000     7.902000000
H     1.944000000     1.995000000     6.988000000
H     2.411000000     2.252000000     8.404000000
O    -1.056000000     3.754000000     5.498000000
H    -0.465000000     4.495000000     5.634000000
H    -0.991000000     3.245000000     6.307000000
