161
-3070.66844
C     0.133000000    -0.454000000     1.401000000
H     0.120000000    -0.842000000     2.417000000
C    -0.832000000    -0.899000000     0.442000000
H    -1.676000000    -1.542000000     0.676000000
C    -0.789000000    -0.430000000    -0.884000000
C    -1.827000000    -0.834000000    -1.808000000
H    -2.398000000    -1.744000000    -1.612000000
H    -2.585000000    -0.049000000    -1.787000000
H    -1.374000000    -1.026000000    -2.783000000
C     0.189000000     0.487000000    -1.277000000
H     0.156000000     0.981000000    -2.245000000
C     1.193000000     0.828000000    -0.364000000
H     1.944000000     1.610000000    -0.440000000
C     1.145000000     0.402000000     1.002000000
C     2.011000000     0.953000000     2.107000000
O     2.874000000     1.729000000     1.840000000
O     1.710000000     0.822000000     3.317000000
O    -2.120000000     3.422000000     3.788000000
H    -1.556000000     3.126000000     4.502000000
H    -2.925000000     3.708000000     4.221000000
O    -2.303000000    -2.561000000    -6.157000000
H    -2.184000000    -3.507000000    -6.077000000
H    -2.541000000    -2.274000000    -5.276000000
O     4.656000000     2.914000000     3.361000000
H     5.224000000     3.323000000     2.708000000
H     3.948000000     2.521000000     2.851000000
O     1.778000000     4.795000000    -3.686000000
H     1.354000000     4.500000000    -2.880000000
H     1.767000000     5.750000000    -3.627000000
O     1.397000000     6.042000000     4.692000000
H     1.966000000     5.280000000     4.581000000
H     0.616000000     5.697000000     5.124000000
O     1.006000000    -3.980000000    -4.633000000
H     0.185000000    -4.300000000    -5.006000000
H     1.669000000    -4.200000000    -5.288000000
O     0.881000000     5.122000000     0.846000000
H     1.071000000     5.610000000     1.647000000
H     0.010000000     4.752000000     0.992000000
O    -5.419000000     1.110000000     2.056000000
H    -5.816000000     1.111000000     2.927000000
H    -4.489000000     0.949000000     2.216000000
O     4.935000000     3.994000000    -1.761000000
H     4.505000000     3.732000000    -2.575000000
H     4.233000000     3.999000000    -1.110000000
O     7.850000000     0.594000000     1.973000000
H     7.360000000     0.736000000     1.163000000
H     7.317000000     1.008000000     2.652000000
O    -1.792000000     2.208000000     6.436000000
H    -2.340000000     1.497000000     6.769000000
H    -1.054000000     1.765000000     6.017000000
O    -1.905000000    -2.977000000     6.802000000
H    -1.933000000    -3.842000000     6.393000000
H    -2.030000000    -2.365000000     6.078000000
O    -1.297000000    -3.871000000     2.376000000
H    -1.281000000    -4.760000000     2.728000000
H    -0.582000000    -3.851000000     1.740000000
O     3.326000000    -1.041000000     6.954000000
H     3.877000000    -0.272000000     7.102000000
H     3.347000000    -1.171000000     6.006000000
O     4.628000000    -2.503000000     1.178000000
H     5.581000000    -2.594000000     1.188000000
H     4.343000000    -2.868000000     2.015000000
O     1.685000000     1.221000000    -5.279000000
H     1.186000000     0.405000000    -5.229000000
H     2.159000000     1.161000000    -6.108000000
O    -4.260000000    -0.706000000    -4.037000000
H    -3.848000000    -0.209000000    -4.744000000
H    -3.735000000    -0.502000000    -3.263000000
O     4.423000000    -1.421000000    -3.523000000
H     4.515000000    -0.518000000    -3.829000000
H     4.276000000    -1.340000000    -2.581000000
O     0.596000000     0.420000000     7.319000000
H     1.315000000    -0.211000000     7.336000000
H     1.026000000     1.274000000     7.359000000
O     3.352000000     3.983000000     0.315000000
H     3.164000000     3.282000000     0.940000000
H     2.659000000     4.627000000     0.463000000
O    -1.943000000    -4.941000000    -4.919000000
H    -1.827000000    -5.845000000    -5.210000000
H    -1.670000000    -4.947000000    -4.002000000
O     6.854000000     1.423000000     4.327000000
H     7.397000000     2.186000000     4.523000000
H     5.981000000     1.784000000     4.171000000
O    -1.468000000     5.030000000    -3.841000000
H    -2.203000000     5.435000000    -3.379000000
H    -0.911000000     4.680000000    -3.146000000
O    -3.083000000     2.842000000    -1.155000000
H    -2.836000000     2.509000000    -0.292000000
H    -3.456000000     3.706000000    -0.980000000
O    -6.010000000     2.052000000    -2.629000000
H    -6.444000000     1.225000000    -2.838000000
H    -5.918000000     2.040000000    -1.676000000
O     0.134000000    -1.082000000    -5.044000000
H    -0.334000000    -1.420000000    -5.808000000
H     0.452000000    -1.864000000    -4.593000000
O     2.204000000     3.203000000     4.755000000
H     1.724000000     2.545000000     4.252000000
H     3.107000000     3.128000000     4.447000000
O    -3.756000000     2.165000000    -3.862000000
H    -4.663000000     2.112000000    -3.561000000
H    -3.241000000     2.232000000    -3.058000000
O    -4.018000000    -4.115000000    -1.012000000
H    -3.290000000    -4.332000000    -1.594000000
H    -4.798000000    -4.404000000    -1.485000000
O    -0.316000000     0.440000000     4.861000000
H     0.417000000     0.443000000     4.245000000
H     0.053000000     0.090000000     5.671000000
O    -6.109000000     2.770000000     0.127000000
H    -5.659000000     2.062000000     0.590000000
H    -5.975000000     3.540000000     0.679000000
O     3.630000000     2.753000000    -4.256000000
H     3.331000000     3.656000000    -4.358000000
H     2.839000000     2.225000000    -4.367000000
O    -2.575000000    -2.223000000     4.207000000
H    -2.357000000    -1.355000000     3.867000000
H    -2.224000000    -2.830000000     3.555000000
O     0.735000000    -3.820000000     0.720000000
H     1.673000000    -3.840000000     0.907000000
H     0.675000000    -3.446000000    -0.159000000
O    -4.157000000    -3.985000000     2.001000000
H    -3.236000000    -4.025000000     2.259000000
H    -4.136000000    -3.936000000     1.046000000
O    -3.366000000     0.981000000    -6.705000000
H    -2.816000000     1.549000000    -7.244000000
H    -3.216000000     1.283000000    -5.809000000
O    -0.540000000     3.794000000    -1.655000000
H    -1.243000000     3.212000000    -1.945000000
H    -0.853000000     4.152000000    -0.825000000
O    -2.484000000     1.138000000     2.300000000
H    -2.429000000     1.913000000     2.860000000
H    -1.576000000     0.945000000     2.068000000
O    -1.347000000    -4.961000000    -2.165000000
H    -0.755000000    -5.637000000    -1.836000000
H    -1.030000000    -4.151000000    -1.767000000
O     0.916000000    -2.803000000    -1.909000000
H     1.077000000    -3.267000000    -2.730000000
H     1.155000000    -1.895000000    -2.097000000
O     4.558000000    -0.808000000    -0.872000000
H     4.285000000    -1.382000000    -0.156000000
H     4.834000000     0.000000000    -0.439000000
O    -0.900000000     3.368000000    -6.199000000
H    -1.392000000     3.891000000    -5.567000000
H    -0.029000000     3.279000000    -5.811000000
O    -6.530000000    -2.804000000    -3.269000000
H    -6.476000000    -3.060000000    -4.190000000
H    -5.719000000    -2.322000000    -3.107000000
O    -1.872000000     4.061000000     1.045000000
H    -1.856000000     3.680000000     1.924000000
H    -2.621000000     4.657000000     1.056000000
O     3.830000000    -0.280000000     4.323000000
H     3.039000000     0.202000000     4.078000000
H     4.290000000    -0.421000000     3.496000000
O     5.158000000     1.521000000     0.680000000
H     4.269000000     1.622000000     1.020000000
H     5.354000000     2.363000000     0.269000000
O     2.166000000     2.657000000     7.377000000
H     2.319000000     2.814000000     6.445000000
H     2.218000000     3.525000000     7.777000000
O     2.426000000     6.725000000    -0.746000000
H     1.765000000     6.210000000    -0.283000000
H     2.211000000     6.612000000    -1.672000000
