161
-3033.65665
C     0.934000000    -0.635000000     0.996000000
H     1.555000000    -1.239000000     1.652000000
C    -0.451000000    -0.882000000     0.959000000
H    -0.850000000    -1.617000000     1.653000000
C    -1.183000000    -0.242000000    -0.027000000
C    -2.662000000    -0.478000000    -0.105000000
H    -2.835000000    -1.004000000    -1.047000000
H    -3.086000000    -1.069000000     0.710000000
H    -3.243000000     0.445000000    -0.061000000
C    -0.642000000     0.714000000    -0.938000000
H    -1.171000000     1.215000000    -1.744000000
C     0.743000000     0.961000000    -0.824000000
H     1.193000000     1.617000000    -1.566000000
C     1.537000000     0.301000000     0.106000000
C     3.020000000     0.590000000     0.142000000
O     3.337000000     1.548000000    -0.469000000
O     3.797000000    -0.227000000     0.567000000
O     6.581000000    -2.611000000     3.179000000
H     5.630000000    -2.512000000     3.144000000
H     6.902000000    -2.106000000     2.431000000
O    -2.913000000     3.415000000     1.512000000
H    -2.010000000     3.250000000     1.782000000
H    -3.324000000     3.810000000     2.281000000
O     7.542000000    -1.111000000     0.617000000
H     8.286000000    -1.202000000     0.021000000
H     7.252000000    -0.206000000     0.501000000
O     0.251000000    -4.716000000     1.280000000
H     0.743000000    -5.537000000     1.314000000
H     0.562000000    -4.219000000     2.037000000
O    -0.377000000     5.191000000    -4.544000000
H     0.538000000     5.094000000    -4.280000000
H    -0.873000000     5.093000000    -3.731000000
O    -1.974000000     5.592000000    -2.293000000
H    -2.717000000     6.151000000    -2.067000000
H    -2.301000000     4.700000000    -2.177000000
O     1.311000000     4.810000000     2.100000000
H     1.609000000     4.896000000     1.194000000
H     1.364000000     5.697000000     2.455000000
O    -2.975000000     1.033000000    -3.968000000
H    -3.484000000     1.021000000    -3.157000000
H    -3.475000000     1.601000000    -4.555000000
O     5.500000000     2.434000000     3.266000000
H     4.619000000     2.562000000     2.916000000
H     5.741000000     3.287000000     3.627000000
O    -5.490000000     0.263000000    -2.841000000
H    -5.702000000    -0.094000000    -3.703000000
H    -5.579000000    -0.480000000    -2.244000000
O     7.656000000     0.416000000     3.132000000
H     6.831000000     0.898000000     3.190000000
H     7.482000000    -0.281000000     2.499000000
O    -3.460000000     3.441000000    -1.302000000
H    -3.142000000     3.325000000    -0.407000000
H    -4.337000000     3.811000000    -1.198000000
O    -2.000000000    -1.859000000     5.959000000
H    -1.880000000    -0.972000000     5.617000000
H    -2.732000000    -2.213000000     5.455000000
O     5.054000000    -2.701000000    -0.298000000
H     4.695000000    -1.814000000    -0.298000000
H     6.001000000    -2.576000000    -0.236000000
O    -7.719000000     1.794000000    -2.147000000
H    -8.130000000     2.291000000    -2.854000000
H    -6.820000000     1.653000000    -2.446000000
O     3.375000000     4.115000000    -1.338000000
H     3.231000000     3.258000000    -0.936000000
H     4.198000000     4.019000000    -1.818000000
O     3.620000000     0.887000000    -3.148000000
H     3.074000000     1.628000000    -3.412000000
H     3.703000000     0.977000000    -2.199000000
O    -5.838000000     3.689000000    -0.283000000
H    -6.549000000     4.217000000    -0.646000000
H    -6.280000000     3.022000000     0.243000000
O     2.691000000     2.725000000     2.776000000
H     2.110000000     2.027000000     2.473000000
H     2.199000000     3.531000000     2.617000000
O     3.910000000    -4.716000000     0.611000000
H     4.389000000    -5.073000000     1.359000000
H     4.525000000    -4.111000000     0.198000000
O    -1.072000000    -5.442000000     5.309000000
H    -1.099000000    -4.733000000     4.667000000
H    -0.668000000    -5.050000000     6.083000000
O    -6.039000000    -2.453000000    -2.542000000
H    -5.504000000    -3.190000000    -2.834000000
H    -6.114000000    -2.571000000    -1.595000000
O     1.527000000     5.883000000    -0.581000000
H     1.660000000     6.682000000    -1.092000000
H     2.078000000     5.229000000    -1.012000000
O    -2.186000000    -4.138000000     3.052000000
H    -1.650000000    -3.751000000     2.359000000
H    -2.881000000    -3.498000000     3.203000000
O    -3.774000000    -2.053000000     3.591000000
H    -3.836000000    -1.404000000     2.890000000
H    -4.677000000    -2.177000000     3.883000000
O     4.401000000    -0.147000000     3.975000000
H     4.953000000     0.626000000     4.091000000
H     3.609000000     0.046000000     4.477000000
O     0.798000000    -2.336000000     5.367000000
H    -0.108000000    -2.087000000     5.549000000
H     1.264000000    -1.504000000     5.289000000
O     5.033000000    -1.107000000    -4.411000000
H     4.534000000    -0.491000000    -3.873000000
H     4.713000000    -1.969000000    -4.147000000
O    -0.675000000    -4.307000000    -1.309000000
H    -0.436000000    -4.018000000    -0.428000000
H     0.034000000    -3.988000000    -1.866000000
O     2.177000000    -3.321000000    -1.682000000
H     2.917000000    -2.891000000    -2.110000000
H     2.578000000    -3.913000000    -1.046000000
O    -7.237000000    -0.196000000     2.412000000
H    -7.376000000     0.009000000     1.488000000
H    -6.453000000     0.299000000     2.652000000
O     6.856000000     1.555000000    -1.968000000
H     7.737000000     1.347000000    -1.658000000
H     6.292000000     1.402000000    -1.210000000
O    -6.538000000    -3.274000000    -0.056000000
H    -6.882000000    -3.401000000     0.829000000
H    -6.155000000    -4.120000000    -0.287000000
O    -2.762000000    -2.323000000    -4.242000000
H    -2.425000000    -1.444000000    -4.066000000
H    -2.105000000    -2.721000000    -4.813000000
O     3.767000000    -2.302000000     2.664000000
H     3.937000000    -1.432000000     3.026000000
H     3.776000000    -2.173000000     1.716000000
O    -2.768000000    -6.360000000     0.498000000
H    -1.928000000    -5.939000000     0.682000000
H    -2.756000000    -7.158000000     1.025000000
O     1.569000000    -3.955000000     3.524000000
H     1.287000000    -3.428000000     4.271000000
H     2.352000000    -3.511000000     3.199000000
O    -2.878000000     2.064000000     4.135000000
H    -2.107000000     2.613000000     4.279000000
H    -3.554000000     2.450000000     4.692000000
O    -4.588000000     1.086000000     2.224000000
H    -3.964000000     1.377000000     2.890000000
H    -4.246000000     1.442000000     1.404000000
O    -0.653000000     0.653000000     5.331000000
H    -0.999000000     1.091000000     6.108000000
H    -0.662000000     1.328000000     4.652000000
O    -1.155000000     0.042000000    -6.152000000
H    -0.294000000    -0.297000000    -5.908000000
H    -1.595000000     0.200000000    -5.317000000
O     0.572000000    -1.367000000    -2.668000000
H     0.138000000    -0.849000000    -1.991000000
H     1.017000000    -2.065000000    -2.188000000
O     2.221000000     4.639000000    -4.072000000
H     2.438000000     4.599000000    -3.141000000
H     3.069000000     4.650000000    -4.516000000
O     4.694000000     5.977000000     0.427000000
H     3.976000000     5.427000000     0.115000000
H     5.485000000     5.537000000     0.115000000
O    -3.073000000    -4.209000000    -2.198000000
H    -2.177000000    -4.294000000    -1.874000000
H    -3.030000000    -3.500000000    -2.839000000
O     1.217000000    -0.545000000    -5.231000000
H     0.819000000    -0.847000000    -4.415000000
H     2.130000000    -0.370000000    -5.002000000
O     6.630000000     4.370000000    -1.310000000
H     7.298000000     4.845000000    -1.804000000
H     6.595000000     3.507000000    -1.724000000
O     6.004000000     1.014000000     0.625000000
H     5.881000000     1.702000000     1.279000000
H     5.118000000     0.714000000     0.422000000
