161
-3017.27215
C     0.209000000    -0.317000000     1.444000000
H     0.192000000    -0.601000000     2.493000000
C    -1.044000000    -0.412000000     0.762000000
H    -1.928000000    -0.811000000     1.253000000
C    -1.020000000    -0.053000000    -0.564000000
C    -2.332000000    -0.116000000    -1.294000000
H    -2.613000000     0.864000000    -1.686000000
H    -2.219000000    -0.797000000    -2.140000000
H    -3.102000000    -0.579000000    -0.673000000
C     0.066000000     0.372000000    -1.187000000
H     0.012000000     0.517000000    -2.263000000
C     1.283000000     0.432000000    -0.600000000
H     2.145000000     0.710000000    -1.202000000
C     1.370000000     0.099000000     0.751000000
C     2.658000000     0.188000000     1.457000000
O     3.672000000     0.388000000     0.780000000
O     2.647000000     0.120000000     2.677000000
O     0.543000000     4.426000000     2.449000000
H     0.113000000     3.898000000     1.776000000
H     1.053000000     3.796000000     2.959000000
O    -4.690000000     0.862000000     4.354000000
H    -4.744000000     1.369000000     3.544000000
H    -5.238000000     1.342000000     4.975000000
O    -6.532000000    -0.426000000     0.216000000
H    -7.482000000    -0.363000000     0.117000000
H    -6.182000000    -0.053000000    -0.593000000
O     2.332000000    -3.876000000    -2.988000000
H     2.120000000    -3.801000000    -3.919000000
H     2.896000000    -3.123000000    -2.810000000
O    -1.447000000     2.946000000    -2.706000000
H    -1.355000000     2.891000000    -1.755000000
H    -2.339000000     3.267000000    -2.842000000
O    -6.148000000     1.144000000    -2.380000000
H    -6.472000000     1.941000000    -2.800000000
H    -5.376000000     0.901000000    -2.890000000
O     1.719000000     3.087000000    -3.044000000
H     0.857000000     2.969000000    -2.645000000
H     1.980000000     3.974000000    -2.794000000
O     1.370000000    -0.551000000    -4.122000000
H     2.014000000    -0.957000000    -4.703000000
H     0.851000000    -1.283000000    -3.791000000
O    -4.017000000     4.713000000    -1.069000000
H    -3.477000000     5.441000000    -1.376000000
H    -4.148000000     4.168000000    -1.845000000
O     1.866000000    -0.738000000     4.941000000
H     2.732000000    -0.739000000     5.347000000
H     1.987000000    -0.262000000     4.119000000
O     6.619000000    -1.626000000    -0.463000000
H     7.008000000    -1.336000000     0.363000000
H     6.039000000    -0.909000000    -0.720000000
O    -1.318000000    -2.947000000     5.113000000
H    -1.969000000    -2.368000000     4.717000000
H    -1.048000000    -3.527000000     4.402000000
O     1.294000000     3.879000000    -5.647000000
H     2.020000000     3.666000000    -6.234000000
H     1.545000000     3.495000000    -4.807000000
O     3.341000000     1.013000000     6.352000000
H     3.868000000     1.784000000     6.142000000
H     3.399000000     0.935000000     7.304000000
O    -2.006000000     1.283000000     3.286000000
H    -1.720000000     1.699000000     4.099000000
H    -1.962000000     0.345000000     3.467000000
O    -5.617000000     2.826000000     1.551000000
H    -6.525000000     2.621000000     1.328000000
H    -5.103000000     2.445000000     0.839000000
O     4.337000000    -1.992000000    -2.494000000
H     4.015000000    -1.190000000    -2.906000000
H     5.258000000    -1.811000000    -2.306000000
O     3.563000000    -2.367000000     0.104000000
H     3.691000000    -1.490000000     0.467000000
H     3.967000000    -2.328000000    -0.762000000
O     5.226000000    -2.179000000     4.458000000
H     5.418000000    -1.700000000     3.652000000
H     4.701000000    -2.927000000     4.173000000
O    -2.017000000     1.058000000    -5.037000000
H    -1.439000000     1.682000000    -4.598000000
H    -2.022000000     1.340000000    -5.952000000
O    -4.395000000    -0.519000000    -4.019000000
H    -4.759000000    -0.777000000    -4.866000000
H    -3.569000000    -0.086000000    -4.234000000
O    -1.029000000     5.737000000    -0.168000000
H    -1.346000000     4.858000000     0.038000000
H    -1.271000000     6.263000000     0.594000000
O     2.053000000     2.360000000     3.466000000
H     2.767000000     2.902000000     3.801000000
H     2.483000000     1.565000000     3.151000000
O     5.975000000     2.763000000     5.837000000
H     5.824000000     2.540000000     4.918000000
H     5.576000000     3.627000000     5.942000000
O     1.850000000    -4.017000000     1.147000000
H     2.376000000    -3.277000000     0.845000000
H     1.731000000    -4.560000000     0.368000000
O    -0.212000000    -0.887000000     6.808000000
H    -0.753000000    -1.519000000     6.335000000
H     0.398000000    -0.554000000     6.149000000
O    -3.787000000     3.921000000    -3.859000000
H    -3.952000000     3.465000000    -4.684000000
H    -3.665000000     4.836000000    -4.111000000
O     3.335000000     3.703000000     0.303000000
H     3.990000000     4.169000000     0.822000000
H     3.513000000     2.777000000     0.467000000
O     3.824000000     0.479000000    -3.602000000
H     4.150000000     0.616000000    -4.492000000
H     2.905000000     0.743000000    -3.641000000
O     4.964000000     1.720000000     3.457000000
H     4.180000000     1.313000000     3.089000000
H     5.368000000     2.174000000     2.717000000
O     5.958000000    -0.761000000     2.380000000
H     5.765000000    -0.122000000     3.066000000
H     5.263000000    -0.634000000     1.733000000
O    -0.878000000    -3.411000000     1.198000000
H    -1.040000000    -2.599000000     0.718000000
H     0.076000000    -3.496000000     1.208000000
O    -5.110000000    -1.956000000     1.659000000
H    -5.298000000    -2.841000000     1.348000000
H    -5.550000000    -1.383000000     1.031000000
O    -0.437000000     2.089000000     5.151000000
H    -0.191000000     1.904000000     6.057000000
H     0.392000000     2.275000000     4.711000000
O    -3.258000000    -1.494000000     3.989000000
H    -3.390000000    -1.612000000     3.048000000
H    -3.892000000    -0.821000000     4.237000000
O    -3.007000000    -3.533000000    -5.437000000
H    -3.937000000    -3.443000000    -5.229000000
H    -2.956000000    -3.379000000    -6.380000000
O    -3.983000000    -3.446000000    -2.716000000
H    -3.472000000    -3.390000000    -3.524000000
H    -4.206000000    -2.539000000    -2.510000000
O    -1.035000000     2.741000000     0.761000000
H    -0.266000000     2.197000000     0.589000000
H    -1.594000000     2.196000000     1.316000000
O     2.543000000    -3.332000000     3.730000000
H     2.202000000    -3.303000000     2.836000000
H     2.385000000    -2.453000000     4.075000000
O    -1.041000000    -2.171000000    -3.936000000
H    -1.534000000    -1.354000000    -4.007000000
H    -1.268000000    -2.658000000    -4.728000000
O     0.669000000     0.702000000    -6.959000000
H     0.128000000     1.492000000    -6.959000000
H     0.550000000     0.330000000    -6.085000000
O    -1.946000000    -5.062000000    -2.003000000
H    -1.646000000    -5.345000000    -2.867000000
H    -2.784000000    -4.630000000    -2.171000000
O    -0.504000000    -5.069000000     3.558000000
H    -0.836000000    -4.648000000     2.765000000
H     0.153000000    -5.689000000     3.242000000
O     7.119000000     2.520000000    -0.260000000
H     7.254000000     2.828000000    -1.157000000
H     6.564000000     1.746000000    -0.354000000
O     4.274000000     5.169000000    -2.728000000
H     4.406000000     5.845000000    -2.062000000
H     3.907000000     4.428000000    -2.247000000
O     5.393000000     0.550000000    -1.199000000
H     4.975000000     0.439000000    -2.053000000
H     4.666000000     0.697000000    -0.594000000
O    -5.406000000     2.363000000    -5.467000000
H    -5.018000000     1.489000000    -5.514000000
H    -5.399000000     2.677000000    -6.371000000
O    -2.070000000    -5.867000000     0.682000000
H    -1.913000000    -5.839000000    -0.261000000
H    -1.665000000    -5.067000000     1.017000000
