161
-3036.09078
C     0.460000000     0.987000000     0.934000000
H     0.666000000     1.822000000     1.600000000
C    -0.898000000     0.777000000     0.580000000
H    -1.622000000     1.525000000     0.895000000
C    -1.186000000    -0.285000000    -0.299000000
C    -2.579000000    -0.303000000    -0.753000000
H    -2.723000000     0.382000000    -1.592000000
H    -2.784000000    -1.345000000    -1.007000000
H    -3.224000000     0.035000000     0.060000000
C    -0.153000000    -1.038000000    -0.827000000
H    -0.396000000    -1.747000000    -1.614000000
C     1.121000000    -0.853000000    -0.393000000
H     1.851000000    -1.499000000    -0.874000000
C     1.474000000     0.134000000     0.463000000
C     2.912000000     0.363000000     0.894000000
O     3.844000000    -0.103000000     0.211000000
O     3.235000000     1.149000000     1.718000000
O     3.034000000     3.654000000     1.517000000
H     3.132000000     2.739000000     1.779000000
H     3.348000000     4.154000000     2.270000000
O    -5.908000000    -1.455000000     2.781000000
H    -5.648000000    -1.870000000     1.959000000
H    -5.251000000    -0.774000000     2.923000000
O    -4.743000000     0.989000000     2.453000000
H    -5.542000000     1.015000000     1.926000000
H    -5.019000000     1.283000000     3.321000000
O     1.763000000    -2.024000000    -3.518000000
H     1.857000000    -1.162000000    -3.113000000
H     1.293000000    -1.855000000    -4.335000000
O    -0.610000000     1.833000000    -4.162000000
H    -0.774000000     1.769000000    -5.103000000
H    -0.142000000     2.662000000    -4.057000000
O     3.788000000     6.247000000     0.546000000
H     3.286000000     5.450000000     0.375000000
H     4.670000000     5.935000000     0.751000000
O    -3.468000000     0.375000000    -4.064000000
H    -4.075000000     1.002000000    -3.672000000
H    -2.601000000     0.737000000    -3.885000000
O     2.255000000     4.381000000    -0.897000000
H     1.597000000     3.812000000    -1.296000000
H     2.666000000     3.838000000    -0.225000000
O     3.610000000    -0.905000000    -5.889000000
H     3.247000000    -1.641000000    -6.381000000
H     3.131000000    -0.912000000    -5.060000000
O    -5.339000000     2.428000000    -3.082000000
H    -4.949000000     2.654000000    -2.238000000
H    -6.210000000     2.098000000    -2.863000000
O    -3.677000000     5.352000000     2.054000000
H    -4.083000000     5.328000000     1.188000000
H    -4.414000000     5.346000000     2.665000000
O    -4.028000000     5.022000000    -1.149000000
H    -3.092000000     5.006000000    -1.348000000
H    -4.270000000     5.946000000    -1.211000000
O     7.631000000    -2.418000000    -1.572000000
H     6.795000000    -2.434000000    -2.038000000
H     7.628000000    -1.583000000    -1.103000000
O    -6.531000000    -2.055000000    -3.783000000
H    -5.742000000    -2.568000000    -3.609000000
H    -6.379000000    -1.665000000    -4.644000000
O    -1.817000000     2.502000000     5.062000000
H    -2.055000000     2.900000000     5.899000000
H    -1.901000000     3.213000000     4.426000000
O    -4.235000000    -3.485000000    -2.523000000
H    -3.595000000    -3.656000000    -1.832000000
H    -3.705000000    -3.291000000    -3.296000000
O     4.782000000    -2.806000000    -2.401000000
H     4.480000000    -3.388000000    -3.099000000
H     4.263000000    -3.058000000    -1.637000000
O    -1.551000000     4.253000000     3.181000000
H    -2.340000000     4.739000000     2.941000000
H    -0.933000000     4.436000000     2.472000000
O     4.358000000    -2.521000000     0.985000000
H     4.306000000    -1.650000000     0.592000000
H     3.450000000    -2.825000000     1.013000000
O     5.352000000    -3.074000000     3.593000000
H     5.406000000    -2.127000000     3.725000000
H     5.210000000    -3.176000000     2.652000000
O     1.094000000     2.907000000     5.033000000
H     0.173000000     2.977000000     5.283000000
H     1.158000000     2.064000000     4.584000000
O     0.453000000     4.206000000    -3.589000000
H    -0.302000000     3.975000000    -3.048000000
H     0.336000000     5.138000000    -3.777000000
O     2.962000000     4.952000000     4.041000000
H     2.551000000     5.786000000     4.270000000
H     2.321000000     4.290000000     4.300000000
O     1.767000000    -2.342000000     2.996000000
H     2.108000000    -2.007000000     2.166000000
H     0.877000000    -2.629000000     2.790000000
O     1.644000000    -3.956000000     0.341000000
H     1.354000000    -4.740000000     0.808000000
H     2.118000000    -4.292000000    -0.420000000
O     0.253000000     5.159000000     1.339000000
H     1.175000000     4.936000000     1.207000000
H     0.271000000     6.041000000     1.710000000
O     6.088000000     4.781000000     0.932000000
H     5.936000000     3.954000000     0.475000000
H     6.274000000     4.525000000     1.835000000
O     5.433000000     2.466000000    -0.461000000
H     4.661000000     1.986000000    -0.160000000
H     5.395000000     2.408000000    -1.415000000
O     4.013000000    -0.178000000    -2.327000000
H     4.455000000    -0.973000000    -2.624000000
H     3.883000000    -0.313000000    -1.388000000
O    -6.373000000     0.261000000     0.001000000
H    -6.728000000     0.946000000    -0.566000000
H    -7.097000000    -0.354000000     0.116000000
O     4.891000000     2.388000000     3.563000000
H     4.323000000     1.838000000     3.024000000
H     5.672000000     2.524000000     3.028000000
O     1.706000000     0.465000000     3.924000000
H     1.274000000    -0.380000000     3.793000000
H     2.187000000     0.617000000     3.111000000
O    -1.266000000    -0.144000000     4.429000000
H    -1.831000000     0.618000000     4.302000000
H    -0.834000000     0.015000000     5.268000000
O    -1.674000000    -2.192000000     2.653000000
H    -1.524000000    -1.365000000     3.112000000
H    -2.168000000    -1.946000000     1.871000000
O     7.148000000    -0.230000000    -0.071000000
H     7.764000000     0.486000000    -0.228000000
H     6.285000000     0.180000000    -0.122000000
O     0.195000000    -1.033000000    -5.631000000
H    -0.007000000    -0.124000000    -5.853000000
H    -0.536000000    -1.535000000    -5.991000000
O    -3.506000000    -2.111000000    -5.271000000
H    -2.803000000    -2.119000000    -5.920000000
H    -3.547000000    -1.202000000    -4.973000000
O     4.101000000     0.651000000     5.518000000
H     3.195000000     0.538000000     5.230000000
H     4.469000000     1.288000000     4.905000000
O    -4.871000000    -2.193000000     0.338000000
H    -4.927000000    -2.721000000    -0.458000000
H    -5.021000000    -1.295000000     0.042000000
O     0.441000000     1.979000000    -1.809000000
H     0.610000000     1.312000000    -1.144000000
H     0.099000000     1.490000000    -2.557000000
O     1.131000000    -4.608000000    -3.357000000
H     1.219000000    -4.800000000    -4.290000000
H     1.355000000    -3.680000000    -3.281000000
O     3.385000000    -5.364000000    -1.531000000
H     2.711000000    -5.633000000    -2.155000000
H     3.636000000    -6.174000000    -1.086000000
O     3.347000000    -2.276000000     5.550000000
H     3.492000000    -1.394000000     5.893000000
H     3.302000000    -2.159000000     4.601000000
O     4.381000000     2.283000000    -3.005000000
H     3.807000000     2.449000000    -3.753000000
H     4.202000000     1.375000000    -2.761000000
O    -6.837000000     3.345000000    -0.339000000
H    -7.320000000     4.169000000    -0.269000000
H    -6.053000000     3.481000000     0.193000000
O    -1.429000000    -5.698000000    -1.985000000
H    -1.748000000    -6.162000000    -2.759000000
H    -0.596000000    -5.315000000    -2.262000000
O     7.793000000    -0.371000000     2.794000000
H     7.665000000    -1.309000000     2.933000000
H     7.836000000    -0.273000000     1.842000000
O    -1.110000000     3.995000000    -1.005000000
H    -0.786000000     4.175000000    -0.122000000
H    -0.670000000     3.185000000    -1.261000000
