161
-3044.07723
C    -1.034000000    -0.608000000    -0.828000000
H    -1.774000000    -0.918000000    -1.561000000
C    -0.335000000     0.545000000    -1.109000000
H    -0.681000000     1.194000000    -1.910000000
C     0.724000000     0.966000000    -0.351000000
C     1.323000000     2.333000000    -0.548000000
H     2.302000000     2.392000000    -0.068000000
H     1.499000000     2.482000000    -1.616000000
H     0.679000000     3.146000000    -0.209000000
C     0.950000000     0.309000000     0.882000000
H     1.590000000     0.772000000     1.629000000
C     0.187000000    -0.849000000     1.208000000
H     0.340000000    -1.357000000     2.156000000
C    -0.709000000    -1.401000000     0.297000000
C    -1.515000000    -2.644000000     0.633000000
O    -1.056000000    -3.369000000     1.452000000
O    -2.486000000    -2.990000000    -0.050000000
O    -4.398000000    -2.174000000    -1.808000000
H    -3.723000000    -2.684000000    -1.361000000
H    -4.281000000    -1.282000000    -1.480000000
O     1.497000000    -4.700000000    -2.865000000
H     1.546000000    -4.714000000    -3.821000000
H     0.559000000    -4.685000000    -2.674000000
O     3.901000000     5.611000000    -3.387000000
H     3.986000000     5.385000000    -2.460000000
H     4.604000000     5.124000000    -3.817000000
O     5.125000000     5.529000000    -0.780000000
H     6.078000000     5.451000000    -0.738000000
H     4.935000000     6.368000000    -0.360000000
O    -0.501000000     4.444000000    -3.276000000
H    -0.904000000     3.857000000    -2.636000000
H    -1.092000000     5.196000000    -3.315000000
O     3.618000000     1.144000000    -2.706000000
H     3.926000000     2.022000000    -2.929000000
H     4.207000000     0.853000000    -2.010000000
O     1.574000000     6.739000000    -0.080000000
H     1.841000000     7.310000000    -0.800000000
H     1.607000000     7.301000000     0.695000000
O     3.408000000     4.708000000     0.816000000
H     3.940000000     4.853000000     0.033000000
H     2.679000000     5.321000000     0.727000000
O     4.864000000    -4.335000000     2.720000000
H     3.998000000    -4.072000000     3.033000000
H     4.932000000    -5.261000000     2.954000000
O    -7.490000000    -2.958000000    -1.157000000
H    -6.812000000    -3.393000000    -0.640000000
H    -8.100000000    -3.657000000    -1.389000000
O    -1.560000000     1.563000000    -5.870000000
H    -1.328000000     1.815000000    -6.764000000
H    -0.741000000     1.247000000    -5.489000000
O     1.008000000     5.098000000     4.784000000
H     1.511000000     4.334000000     4.500000000
H     1.379000000     5.827000000     4.288000000
O    -1.733000000    -6.739000000     2.855000000
H    -1.065000000    -6.547000000     2.196000000
H    -2.291000000    -5.961000000     2.863000000
O    -2.948000000    -4.280000000     2.913000000
H    -3.705000000    -3.718000000     2.745000000
H    -2.318000000    -4.042000000     2.232000000
O    -5.699000000    -0.510000000     0.985000000
H    -5.119000000     0.237000000     0.842000000
H    -6.518000000    -0.122000000     1.293000000
O    -6.629000000    -5.080000000     0.695000000
H    -6.023000000    -4.411000000     1.013000000
H    -7.103000000    -5.365000000     1.476000000
O     0.789000000    -5.360000000     1.349000000
H     0.053000000    -4.788000000     1.134000000
H     1.543000000    -4.952000000     0.923000000
O     1.151000000    -7.790000000     2.513000000
H     0.876000000    -7.053000000     1.968000000
H     0.507000000    -8.475000000     2.332000000
O     0.921000000     7.394000000    -3.328000000
H     0.807000000     6.533000000    -2.927000000
H     0.548000000     7.302000000    -4.205000000
O    -3.661000000     0.638000000     4.858000000
H    -3.235000000     0.476000000     4.016000000
H    -4.576000000     0.398000000     4.714000000
O     5.115000000     2.909000000     2.180000000
H     5.974000000     3.247000000     2.435000000
H     4.866000000     3.438000000     1.422000000
O    -1.676000000    -3.043000000    -4.138000000
H    -1.448000000    -3.799000000    -3.598000000
H    -2.633000000    -3.019000000    -4.124000000
O    -3.753000000     5.506000000    -1.795000000
H    -3.166000000     5.929000000    -2.422000000
H    -3.221000000     4.815000000    -1.398000000
O    -2.293000000     3.179000000    -1.130000000
H    -2.600000000     2.288000000    -1.295000000
H    -2.239000000     3.241000000    -0.176000000
O    -2.848000000     4.441000000     1.737000000
H    -3.378000000     5.181000000     2.031000000
H    -2.304000000     4.220000000     2.493000000
O    -2.575000000     0.494000000     2.227000000
H    -2.816000000     0.796000000     1.351000000
H    -1.725000000     0.072000000     2.110000000
O    -4.306000000    -0.570000000    -5.005000000
H    -3.841000000    -0.618000000    -5.841000000
H    -4.570000000    -1.473000000    -4.826000000
O    -4.079000000     0.783000000    -1.087000000
H    -4.916000000     1.195000000    -1.303000000
H    -3.591000000     0.789000000    -1.910000000
O     2.739000000    -3.138000000     3.638000000
H     1.796000000    -3.301000000     3.632000000
H     2.894000000    -2.656000000     4.451000000
O     5.226000000     0.180000000    -0.432000000
H     4.903000000     0.123000000     0.467000000
H     6.119000000    -0.161000000    -0.388000000
O     2.499000000     0.251000000     3.830000000
H     1.575000000     0.289000000     4.075000000
H     2.948000000    -0.022000000     4.630000000
O    -0.266000000    -1.886000000    -6.029000000
H    -0.720000000    -2.298000000    -5.294000000
H     0.205000000    -1.151000000    -5.638000000
O    -1.040000000     5.941000000    -0.822000000
H    -1.444000000     5.219000000    -0.340000000
H    -0.182000000     6.052000000    -0.412000000
O    -3.142000000     1.521000000    -3.596000000
H    -3.436000000     0.789000000    -4.139000000
H    -2.380000000     1.871000000    -4.059000000
O     2.627000000     3.043000000     3.628000000
H     2.548000000     2.095000000     3.738000000
H     3.370000000     3.154000000     3.035000000
O     1.300000000     0.983000000    -4.532000000
H     1.554000000     1.812000000    -4.937000000
H     1.994000000     0.803000000    -3.898000000
O     1.939000000     4.093000000    -4.668000000
H     2.504000000     4.742000000    -4.249000000
H     1.194000000     4.004000000    -4.073000000
O    -1.419000000    -2.450000000     5.840000000
H    -1.382000000    -2.965000000     6.646000000
H    -2.354000000    -2.341000000     5.667000000
O     2.546000000    -1.785000000    -0.890000000
H     2.887000000    -0.957000000    -0.554000000
H     1.663000000    -1.846000000    -0.524000000
O    -1.061000000    -4.690000000    -1.695000000
H    -1.524000000    -4.211000000    -1.008000000
H    -1.107000000    -5.606000000    -1.422000000
O     4.581000000    -0.211000000     2.196000000
H     4.842000000     0.710000000     2.176000000
H     3.722000000    -0.208000000     2.617000000
O     2.603000000    -4.528000000    -0.357000000
H     2.190000000    -4.736000000    -1.195000000
H     2.911000000    -3.628000000    -0.459000000
O     0.357000000    -6.508000000     5.046000000
H    -0.014000000    -7.092000000     4.384000000
H     0.320000000    -5.639000000     4.645000000
O    -4.842000000    -3.358000000    -4.244000000
H    -4.911000000    -2.800000000    -3.469000000
H    -5.747000000    -3.593000000    -4.451000000
O     0.606000000    -0.646000000     6.102000000
H    -0.038000000    -1.343000000     5.973000000
H     1.423000000    -1.108000000     6.294000000
O    -4.741000000    -2.951000000     1.422000000
H    -5.111000000    -2.077000000     1.292000000
H    -4.087000000    -3.039000000     0.728000000
O     0.128000000    -3.482000000     3.986000000
H    -0.366000000    -3.336000000     3.179000000
H    -0.509000000    -3.337000000     4.686000000
O    -4.675000000    -6.964000000    -0.111000000
H    -4.888000000    -7.737000000     0.412000000
H    -5.445000000    -6.401000000    -0.032000000
