161
-3058.24636
C     0.802000000    -0.753000000     0.982000000
H     1.281000000    -1.203000000     1.848000000
C    -0.444000000    -1.118000000     0.529000000
H    -0.873000000    -1.970000000     1.051000000
C    -1.089000000    -0.385000000    -0.442000000
C    -2.470000000    -0.704000000    -1.002000000
H    -3.142000000    -0.099000000    -0.390000000
H    -2.637000000    -0.457000000    -2.052000000
H    -2.728000000    -1.754000000    -0.846000000
C    -0.360000000     0.654000000    -0.983000000
H    -0.812000000     1.276000000    -1.751000000
C     0.909000000     1.011000000    -0.597000000
H     1.328000000     1.842000000    -1.159000000
C     1.492000000     0.358000000     0.497000000
C     2.630000000     0.887000000     1.205000000
O     3.253000000     1.828000000     0.737000000
O     2.861000000     0.591000000     2.378000000
O    -1.215000000     4.220000000     2.039000000
H    -0.303000000     3.997000000     2.227000000
H    -1.191000000     5.147000000     1.804000000
O    -5.089000000    -5.000000000     0.109000000
H    -4.702000000    -4.610000000    -0.675000000
H    -5.915000000    -5.377000000    -0.194000000
O    -2.613000000     0.457000000    -5.668000000
H    -2.683000000     0.965000000    -6.476000000
H    -1.732000000     0.083000000    -5.696000000
O     1.921000000    -0.873000000    -4.752000000
H     2.041000000    -1.748000000    -4.385000000
H     2.681000000    -0.744000000    -5.319000000
O    -5.456000000     0.980000000    -3.479000000
H    -5.457000000     0.542000000    -4.330000000
H    -4.788000000     1.660000000    -3.561000000
O    -3.446000000    -2.239000000    -4.638000000
H    -4.063000000    -1.900000000    -5.287000000
H    -2.833000000    -1.518000000    -4.491000000
O     2.422000000    -1.857000000     3.892000000
H     2.835000000    -1.290000000     3.240000000
H     1.511000000    -1.566000000     3.920000000
O     7.592000000     4.058000000     0.664000000
H     7.020000000     3.294000000     0.590000000
H     8.307000000     3.882000000     0.053000000
O    -6.707000000    -0.514000000    -1.729000000
H    -6.649000000    -1.317000000    -2.246000000
H    -6.338000000     0.163000000    -2.296000000
O     3.335000000     3.703000000     5.397000000
H     3.769000000     2.986000000     5.860000000
H     2.483000000     3.784000000     5.825000000
O     4.500000000    -1.143000000    -1.240000000
H     4.200000000    -2.040000000    -1.092000000
H     3.696000000    -0.642000000    -1.379000000
O     4.553000000     3.180000000     2.462000000
H     4.071000000     2.646000000     1.830000000
H     3.914000000     3.374000000     3.148000000
O     0.260000000    -3.973000000    -1.273000000
H     0.173000000    -4.438000000    -0.441000000
H    -0.107000000    -3.106000000    -1.102000000
O    -5.298000000     4.089000000     0.332000000
H    -5.517000000     4.001000000     1.260000000
H    -4.571000000     3.480000000     0.198000000
O    -2.505000000    -4.776000000     4.531000000
H    -2.763000000    -4.496000000     3.653000000
H    -2.545000000    -3.979000000     5.059000000
O     6.431000000     5.101000000     2.837000000
H     5.695000000     4.489000000     2.827000000
H     6.966000000     4.846000000     2.085000000
O    -1.184000000     0.205000000     4.777000000
H    -0.459000000     0.800000000     4.586000000
H    -1.950000000     0.631000000     4.393000000
O     4.839000000     2.187000000    -3.275000000
H     5.561000000     1.676000000    -2.911000000
H     4.313000000     1.549000000    -3.757000000
O    -3.722000000    -1.316000000     2.500000000
H    -3.328000000    -0.854000000     3.239000000
H    -3.838000000    -0.642000000     1.830000000
O     2.839000000    -4.109000000     5.882000000
H     2.024000000    -4.588000000     6.026000000
H     2.629000000    -3.483000000     5.188000000
O     1.960000000     5.894000000    -2.863000000
H     2.534000000     6.639000000    -2.685000000
H     2.492000000     5.127000000    -2.653000000
O    -0.646000000     4.948000000    -3.536000000
H    -0.998000000     5.797000000    -3.803000000
H     0.166000000     5.159000000    -3.076000000
O    -1.155000000    -4.677000000    -3.601000000
H    -2.001000000    -4.247000000    -3.473000000
H    -0.615000000    -4.365000000    -2.875000000
O    -5.501000000     0.200000000     0.644000000
H    -6.227000000    -0.022000000     1.227000000
H    -5.832000000     0.008000000    -0.234000000
O     5.969000000     1.951000000     5.879000000
H     6.357000000     1.673000000     6.709000000
H     5.533000000     1.168000000     5.544000000
O     7.025000000     0.908000000    -2.155000000
H     6.725000000    -0.001000000    -2.140000000
H     6.953000000     1.199000000    -1.246000000
O     6.706000000    -2.243000000     0.966000000
H     7.461000000    -1.660000000     1.047000000
H     6.191000000    -1.869000000     0.251000000
O     3.112000000    -3.432000000    -1.219000000
H     2.184000000    -3.565000000    -1.416000000
H     3.250000000    -3.897000000    -0.393000000
O    -3.750000000     1.333000000     3.178000000
H    -3.605000000     2.175000000     3.609000000
H    -4.566000000     1.006000000     3.557000000
O     6.367000000     1.562000000     0.340000000
H     6.732000000     1.086000000     1.086000000
H     5.419000000     1.476000000     0.441000000
O     1.347000000     0.274000000     6.922000000
H     1.146000000    -0.628000000     7.171000000
H     1.145000000     0.315000000     5.987000000
O    -2.934000000     2.775000000    -0.012000000
H    -2.331000000     2.880000000     0.723000000
H    -3.096000000     1.833000000    -0.056000000
O     1.431000000     1.157000000     4.446000000
H     1.814000000     1.975000000     4.763000000
H     1.838000000     1.018000000     3.591000000
O    -3.201000000     3.570000000    -2.769000000
H    -2.952000000     3.504000000    -1.847000000
H    -2.546000000     4.153000000    -3.153000000
O     1.741000000     3.897000000     2.760000000
H     2.126000000     4.758000000     2.925000000
H     2.234000000     3.553000000     2.015000000
O    -0.230000000    -5.749000000     1.132000000
H    -0.349000000    -6.676000000     1.339000000
H    -1.102000000    -5.368000000     1.232000000
O     2.351000000     6.350000000     0.376000000
H     2.358000000     5.870000000    -0.452000000
H     1.481000000     6.748000000     0.415000000
O     5.118000000    -3.141000000     2.943000000
H     5.734000000    -2.778000000     2.307000000
H     5.509000000    -2.943000000     3.794000000
O    -6.343000000    -3.034000000    -2.605000000
H    -5.929000000    -3.250000000    -3.440000000
H    -6.755000000    -3.852000000    -2.323000000
O    -3.806000000    -4.130000000    -2.088000000
H    -3.960000000    -4.891000000    -2.648000000
H    -4.024000000    -3.379000000    -2.639000000
O    -2.829000000    -4.295000000     1.783000000
H    -2.831000000    -3.338000000     1.781000000
H    -3.629000000    -4.539000000     1.318000000
O    -6.090000000    -3.138000000     2.101000000
H    -5.429000000    -2.576000000     2.504000000
H    -5.626000000    -3.585000000     1.393000000
O     5.443000000     0.402000000     2.855000000
H     5.520000000     1.340000000     3.030000000
H     4.523000000     0.275000000     2.624000000
O     2.911000000    -4.726000000     1.390000000
H     3.327000000    -4.239000000     2.101000000
H     2.247000000    -5.263000000     1.824000000
O    -0.300000000     2.378000000    -5.222000000
H    -0.566000000     3.178000000    -4.769000000
H    -1.047000000     1.788000000    -5.125000000
O     3.977000000    -0.089000000     5.897000000
H     3.123000000    -0.083000000     6.330000000
H     3.824000000    -0.551000000     5.073000000
O     3.596000000     3.716000000    -1.310000000
H     4.146000000     3.169000000    -1.871000000
H     3.343000000     3.141000000    -0.588000000
O     6.235000000    -1.409000000     4.871000000
H     7.160000000    -1.505000000     4.642000000
H     5.907000000    -0.742000000     4.268000000
