161
-3056.11117
C     0.230000000    -0.245000000     1.436000000
H     0.342000000    -0.483000000     2.490000000
C    -0.909000000     0.378000000     0.962000000
H    -1.793000000     0.620000000     1.548000000
C    -1.014000000     0.551000000    -0.396000000
C    -2.248000000     1.191000000    -1.029000000
H    -2.404000000     0.753000000    -2.018000000
H    -3.093000000     0.952000000    -0.381000000
H    -2.059000000     2.261000000    -1.137000000
C    -0.003000000     0.151000000    -1.268000000
H    -0.139000000     0.268000000    -2.340000000
C     1.161000000    -0.384000000    -0.763000000
H     1.894000000    -0.760000000    -1.471000000
C     1.312000000    -0.702000000     0.598000000
C     2.569000000    -1.370000000     1.121000000
O     3.371000000    -1.774000000     0.332000000
O     2.784000000    -1.413000000     2.314000000
O    -0.358000000     5.242000000    -1.376000000
H    -0.372000000     5.132000000    -2.326000000
H    -0.773000000     6.092000000    -1.227000000
O     3.169000000     0.635000000     4.172000000
H     3.283000000    -0.109000000     3.580000000
H     3.974000000     0.656000000     4.688000000
O    -1.686000000    -2.523000000     0.766000000
H    -1.217000000    -2.995000000     1.454000000
H    -1.392000000    -1.616000000     0.854000000
O     1.021000000    -1.213000000    -4.272000000
H     0.753000000    -1.022000000    -5.171000000
H     1.951000000    -0.987000000    -4.246000000
O    -3.232000000    -3.248000000    -3.135000000
H    -3.577000000    -3.050000000    -2.264000000
H    -4.010000000    -3.353000000    -3.682000000
O    -3.873000000     1.453000000     4.437000000
H    -4.380000000     1.533000000     5.244000000
H    -3.238000000     2.168000000     4.480000000
O     4.082000000    -1.360000000    -4.343000000
H     4.895000000    -1.385000000    -3.837000000
H     4.125000000    -0.533000000    -4.824000000
O    -4.465000000     4.441000000    -2.081000000
H    -5.072000000     5.065000000    -1.684000000
H    -4.801000000     3.582000000    -1.824000000
O     5.236000000    -1.340000000     3.019000000
H     5.232000000    -1.893000000     3.800000000
H     4.314000000    -1.276000000     2.766000000
O    -2.150000000     2.154000000    -5.701000000
H    -2.842000000     1.780000000    -5.155000000
H    -1.748000000     2.826000000    -5.151000000
O    -1.847000000     3.221000000     4.254000000
H    -1.355000000     2.468000000     4.580000000
H    -1.243000000     3.663000000     3.657000000
O    -0.503000000     4.439000000     2.210000000
H    -0.185000000     3.831000000     1.543000000
H    -1.340000000     4.752000000     1.869000000
O     6.308000000    -2.722000000    -0.357000000
H     5.786000000    -2.222000000     0.271000000
H     6.370000000    -3.597000000     0.027000000
O    -4.501000000    -2.510000000    -0.401000000
H    -3.736000000    -2.361000000     0.155000000
H    -5.228000000    -2.115000000     0.080000000
O    -0.470000000    -0.040000000    -6.143000000
H    -0.968000000     0.777000000    -6.132000000
H    -1.136000000    -0.725000000    -6.208000000
O    -0.966000000    -3.116000000     3.180000000
H    -1.471000000    -2.360000000     3.480000000
H    -0.066000000    -2.921000000     3.442000000
O     3.749000000    -3.985000000    -5.042000000
H     4.682000000    -4.125000000    -5.204000000
H     3.702000000    -3.114000000    -4.649000000
O     1.828000000    -5.009000000    -2.313000000
H     2.475000000    -4.341000000    -2.088000000
H     0.987000000    -4.555000000    -2.264000000
O    -2.253000000    -2.011000000    -6.330000000
H    -2.794000000    -1.843000000    -7.101000000
H    -2.877000000    -2.266000000    -5.650000000
O     0.896000000     1.876000000     5.094000000
H     1.446000000     1.231000000     4.649000000
H     1.375000000     2.088000000     5.895000000
O    -4.472000000     4.855000000    -4.627000000
H    -3.767000000     5.502000000    -4.589000000
H    -4.836000000     4.847000000    -3.742000000
O     3.666000000    -4.072000000     1.576000000
H     3.868000000    -3.254000000     1.121000000
H     2.715000000    -4.056000000     1.684000000
O     5.728000000    -0.887000000    -2.395000000
H     6.018000000    -0.051000000    -2.030000000
H     6.111000000    -1.547000000    -1.817000000
O     6.717000000     0.783000000     4.433000000
H     6.368000000     0.054000000     3.920000000
H     7.095000000     1.375000000     3.783000000
O     6.631000000    -4.070000000     3.146000000
H     6.251000000    -4.208000000     4.014000000
H     6.249000000    -3.245000000     2.846000000
O     6.207000000    -5.594000000     0.677000000
H     5.377000000    -5.327000000     1.074000000
H     6.776000000    -5.791000000     1.421000000
O     1.983000000     1.901000000    -4.187000000
H     2.333000000     2.465000000    -3.497000000
H     1.092000000     1.700000000    -3.903000000
O     0.576000000     3.172000000     0.133000000
H     0.267000000     3.902000000    -0.404000000
H    -0.028000000     2.456000000    -0.065000000
O    -5.789000000    -0.749000000    -2.465000000
H    -5.524000000    -1.579000000    -2.070000000
H    -5.991000000    -0.971000000    -3.374000000
O     5.218000000    -2.107000000     5.728000000
H     5.214000000    -1.258000000     6.171000000
H     4.844000000    -2.713000000     6.368000000
O     3.193000000     2.971000000    -2.100000000
H     3.151000000     3.576000000    -1.359000000
H     3.423000000     2.128000000    -1.709000000
O     3.019000000     3.074000000     1.594000000
H     2.831000000     2.709000000     2.459000000
H     2.180000000     3.043000000     1.133000000
O     4.894000000     1.039000000     0.577000000
H     4.482000000     0.206000000     0.807000000
H     4.517000000     1.670000000     1.190000000
O    -2.903000000     4.639000000     0.678000000
H    -3.389000000     3.918000000     1.079000000
H    -3.230000000     4.677000000    -0.221000000
O    -4.696000000     1.735000000    -4.155000000
H    -5.210000000     1.133000000    -3.616000000
H    -4.447000000     2.439000000    -3.556000000
O     1.477000000    -2.717000000     4.212000000
H     2.098000000    -2.287000000     3.624000000
H     1.736000000    -3.639000000     4.201000000
O     4.687000000    -5.448000000    -2.359000000
H     4.846000000    -4.513000000    -2.226000000
H     3.816000000    -5.488000000    -2.754000000
O    -5.104000000     1.718000000     2.059000000
H    -5.347000000     2.634000000     1.923000000
H    -4.872000000     1.668000000     2.987000000
O    -2.450000000    -0.921000000     3.810000000
H    -3.154000000    -0.319000000     3.569000000
H    -2.105000000    -0.570000000     4.631000000
O     0.894000000    -4.560000000     0.419000000
H     1.492000000    -4.225000000    -0.250000000
H     0.032000000    -4.243000000     0.150000000
O    -5.814000000    -0.761000000     1.339000000
H    -5.608000000     0.145000000     1.571000000
H    -6.703000000    -0.722000000     0.987000000
O    -0.316000000    -3.579000000    -2.615000000
H    -1.271000000    -3.572000000    -2.683000000
H    -0.032000000    -2.846000000    -3.160000000
O    -5.536000000     1.982000000    -1.388000000
H    -5.095000000     1.153000000    -1.200000000
H    -6.421000000     1.866000000    -1.041000000
O    -0.028000000     4.142000000    -4.114000000
H     0.231000000     5.050000000    -4.265000000
H     0.721000000     3.626000000    -4.412000000
O     6.629000000     1.508000000    -1.403000000
H     6.116000000     1.311000000    -0.619000000
H     6.558000000     2.457000000    -1.503000000
O     3.399000000    -2.769000000    -2.143000000
H     3.404000000    -2.469000000    -1.234000000
H     3.624000000    -1.991000000    -2.653000000
O    -1.095000000     0.180000000     6.029000000
H    -0.500000000     0.888000000     5.783000000
H    -1.520000000     0.491000000     6.828000000
O     1.531000000    -2.091000000     7.421000000
H     0.913000000    -2.709000000     7.810000000
H     1.510000000    -2.289000000     6.484000000
