161
-3066.49583
C     0.360000000    -0.058000000     1.422000000
H     0.565000000    -0.194000000     2.481000000
C    -0.914000000     0.119000000     0.892000000
H    -1.729000000     0.295000000     1.590000000
C    -1.090000000     0.291000000    -0.478000000
C    -2.471000000     0.684000000    -0.911000000
H    -3.053000000    -0.222000000    -0.729000000
H    -2.828000000     1.541000000    -0.337000000
H    -2.528000000     0.817000000    -1.994000000
C    -0.040000000     0.110000000    -1.323000000
H    -0.168000000     0.095000000    -2.403000000
C     1.205000000    -0.222000000    -0.850000000
H     2.054000000    -0.279000000    -1.526000000
C     1.396000000    -0.348000000     0.524000000
C     2.712000000    -0.820000000     1.062000000
O     3.679000000    -0.692000000     0.312000000
O     2.858000000    -1.113000000     2.260000000
O     2.834000000     1.175000000     3.730000000
H     2.790000000     0.416000000     3.148000000
H     2.076000000     1.707000000     3.487000000
O    -6.321000000     4.604000000    -1.421000000
H    -5.766000000     3.906000000    -1.766000000
H    -6.188000000     4.571000000    -0.473000000
O    -7.353000000     1.869000000    -3.650000000
H    -7.878000000     1.390000000    -3.008000000
H    -6.594000000     2.178000000    -3.156000000
O    -1.312000000    -2.666000000     0.103000000
H    -0.562000000    -2.966000000     0.616000000
H    -1.408000000    -1.743000000     0.335000000
O     1.669000000     0.267000000    -4.693000000
H     0.915000000     0.332000000    -5.279000000
H     2.309000000    -0.249000000    -5.182000000
O    -3.071000000    -2.475000000    -2.316000000
H    -2.592000000    -2.437000000    -1.488000000
H    -3.667000000    -3.218000000    -2.214000000
O     5.247000000     3.776000000     2.072000000
H     4.439000000     3.503000000     1.636000000
H     5.009000000     4.579000000     2.535000000
O    -2.824000000     1.042000000     4.044000000
H    -2.453000000     1.646000000     4.687000000
H    -3.007000000     1.588000000     3.279000000
O     3.625000000    -1.158000000    -5.882000000
H     4.230000000    -0.548000000    -5.460000000
H     3.973000000    -1.267000000    -6.767000000
O    -4.908000000     2.312000000    -2.504000000
H    -4.921000000     1.402000000    -2.207000000
H    -3.986000000     2.492000000    -2.689000000
O     5.120000000    -2.453000000     2.228000000
H     4.466000000    -1.762000000     2.331000000
H     4.795000000    -2.984000000     1.501000000
O    -2.411000000     1.796000000    -5.409000000
H    -2.819000000     1.019000000    -5.027000000
H    -2.513000000     2.473000000    -4.741000000
O    -1.712000000     4.353000000     4.373000000
H    -1.739000000     4.392000000     3.417000000
H    -1.136000000     5.075000000     4.626000000
O    -5.896000000     0.400000000     1.737000000
H    -5.610000000    -0.373000000     1.250000000
H    -6.679000000     0.699000000     1.274000000
O    -1.861000000     4.429000000     1.569000000
H    -2.110000000     5.131000000     0.968000000
H    -2.457000000     3.710000000     1.357000000
O     4.516000000    -2.645000000    -1.077000000
H     4.054000000    -2.024000000    -0.514000000
H     3.844000000    -3.275000000    -1.340000000
O    -3.852000000    -3.964000000     0.869000000
H    -2.940000000    -3.681000000     0.808000000
H    -3.914000000    -4.386000000     1.726000000
O    -0.077000000     0.898000000    -6.688000000
H    -0.765000000     1.416000000    -6.271000000
H    -0.549000000     0.276000000    -7.242000000
O    -0.360000000    -3.116000000     2.724000000
H    -0.915000000    -2.633000000     3.336000000
H     0.521000000    -3.043000000     3.091000000
O     5.985000000     0.209000000     1.299000000
H     6.093000000    -0.549000000     1.873000000
H     5.152000000     0.055000000     0.854000000
O     1.186000000    -4.866000000    -3.439000000
H     1.856000000    -4.429000000    -3.965000000
H     0.643000000    -4.153000000    -3.103000000
O    -2.610000000     3.879000000    -3.194000000
H    -2.621000000     4.611000000    -3.810000000
H    -1.745000000     3.922000000    -2.786000000
O     3.759000000    -4.541000000     1.351000000
H     3.218000000    -4.373000000     0.580000000
H     3.252000000    -5.166000000     1.869000000
O     5.438000000    -0.851000000    -3.181000000
H     5.187000000    -1.419000000    -2.453000000
H     6.357000000    -1.065000000    -3.346000000
O     7.021000000    -1.898000000    -0.473000000
H     6.072000000    -2.020000000    -0.522000000
H     7.131000000    -1.006000000    -0.143000000
O     6.011000000    -5.541000000    -0.307000000
H     5.818000000    -4.632000000    -0.078000000
H     6.292000000    -5.941000000     0.517000000
O     2.352000000     2.150000000    -2.667000000
H     2.998000000     1.751000000    -2.084000000
H     2.243000000     1.514000000    -3.374000000
O    -5.714000000    -2.149000000     0.336000000
H    -6.549000000    -2.583000000     0.506000000
H    -5.053000000    -2.796000000     0.581000000
O    -2.808000000    -3.204000000    -5.476000000
H    -3.538000000    -3.818000000    -5.396000000
H    -3.110000000    -2.412000000    -5.032000000
O     2.777000000    -0.035000000     6.393000000
H     2.182000000     0.662000000     6.118000000
H     3.635000000     0.242000000     6.072000000
O     3.098000000     2.885000000     0.854000000
H     2.417000000     2.233000000     1.017000000
H     2.641000000     3.606000000     0.422000000
O     4.252000000     1.282000000    -1.095000000
H     4.076000000     0.369000000    -0.866000000
H     3.973000000     1.779000000    -0.326000000
O    -3.968000000     2.482000000     1.775000000
H    -4.589000000     1.765000000     1.644000000
H    -4.308000000     2.957000000     2.534000000
O     6.945000000    -1.603000000     4.133000000
H     6.830000000    -0.720000000     3.784000000
H     6.136000000    -2.060000000     3.900000000
O    -3.661000000    -0.478000000    -4.190000000
H    -3.403000000    -1.012000000    -3.438000000
H    -4.452000000    -0.023000000    -3.901000000
O     2.037000000    -3.059000000     3.664000000
H     2.212000000    -2.236000000     3.207000000
H     2.872000000    -3.527000000     3.642000000
O     4.995000000     0.942000000     5.444000000
H     5.434000000     1.789000000     5.527000000
H     4.687000000     0.920000000     4.538000000
O    -5.432000000    -0.355000000     4.198000000
H    -5.664000000    -0.105000000     3.303000000
H    -5.145000000     0.461000000     4.608000000
O    -1.623000000    -1.452000000     4.278000000
H    -2.076000000    -0.613000000     4.193000000
H    -1.693000000    -1.669000000     5.208000000
O     2.235000000    -3.898000000    -1.011000000
H     2.069000000    -4.380000000    -1.821000000
H     1.412000000    -3.443000000    -0.830000000
O    -0.436000000    -2.690000000    -2.901000000
H    -1.368000000    -2.647000000    -2.689000000
H    -0.301000000    -1.988000000    -3.536000000
O     0.890000000     2.639000000     2.664000000
H     1.160000000     3.509000000     2.958000000
H     0.092000000     2.794000000     2.158000000
O    -5.670000000    -0.478000000    -2.291000000
H    -5.742000000    -0.981000000    -1.481000000
H    -6.378000000    -0.810000000    -2.844000000
O     0.336000000     3.995000000    -2.480000000
H     0.399000000     4.401000000    -3.345000000
H     1.006000000     3.312000000    -2.486000000
O    -5.534000000    -3.962000000    -2.025000000
H    -5.813000000    -3.451000000    -1.264000000
H    -5.879000000    -3.479000000    -2.776000000
O     7.344000000     2.228000000    -1.116000000
H     6.446000000     2.225000000    -0.783000000
H     7.847000000     2.689000000    -0.445000000
O     3.352000000    -3.533000000    -4.308000000
H     3.541000000    -2.597000000    -4.375000000
H     4.181000000    -3.925000000    -4.031000000
O     1.357000000    -2.535000000     6.236000000
H     1.978000000    -1.814000000     6.334000000
H     1.674000000    -3.023000000     5.476000000
