161
-3030.73988
C     0.224000000    -0.125000000     1.474000000
H     0.236000000    -0.244000000     2.554000000
C    -0.995000000     0.200000000     0.831000000
H    -1.810000000     0.504000000     1.483000000
C    -1.079000000     0.287000000    -0.561000000
C    -2.315000000     0.738000000    -1.183000000
H    -3.204000000     0.303000000    -0.721000000
H    -2.307000000     1.810000000    -0.974000000
H    -2.350000000     0.552000000    -2.258000000
C     0.024000000    -0.036000000    -1.301000000
H    -0.059000000    -0.069000000    -2.384000000
C     1.209000000    -0.435000000    -0.715000000
H     2.053000000    -0.616000000    -1.376000000
C     1.322000000    -0.404000000     0.667000000
C     2.692000000    -0.661000000     1.323000000
O     3.554000000    -1.013000000     0.607000000
O     2.809000000    -0.788000000     2.537000000
O    -1.187000000     4.348000000    -4.338000000
H    -1.879000000     4.901000000    -3.975000000
H    -1.526000000     4.069000000    -5.189000000
O     3.349000000     1.377000000     4.140000000
H     2.930000000     0.679000000     3.638000000
H     4.196000000     1.012000000     4.397000000
O    -4.829000000     3.686000000    -3.100000000
H    -4.197000000     4.404000000    -3.125000000
H    -4.587000000     3.180000000    -2.324000000
O    -1.915000000    -2.744000000     0.434000000
H    -1.668000000    -2.989000000     1.325000000
H    -2.101000000    -1.807000000     0.486000000
O     2.847000000    -0.072000000    -5.809000000
H     2.337000000    -0.853000000    -5.594000000
H     3.506000000    -0.380000000    -6.430000000
O    -2.281000000    -1.711000000    -3.717000000
H    -2.498000000    -2.493000000    -3.210000000
H    -3.035000000    -1.581000000    -4.292000000
O    -4.999000000     5.282000000    -0.070000000
H    -4.662000000     6.177000000    -0.099000000
H    -4.329000000     4.788000000     0.403000000
O     3.517000000     2.370000000     1.301000000
H     3.934000000     3.010000000     1.878000000
H     2.688000000     2.778000000     1.051000000
O    -1.717000000     1.494000000     4.038000000
H    -1.661000000     1.975000000     4.864000000
H    -1.155000000     1.984000000     3.437000000
O    -4.995000000    -1.991000000     4.331000000
H    -5.305000000    -1.574000000     3.527000000
H    -4.596000000    -2.810000000     4.037000000
O     5.530000000    -4.224000000     1.861000000
H     4.825000000    -4.744000000     2.246000000
H     5.560000000    -3.430000000     2.394000000
O    -0.445000000    -0.913000000    -6.780000000
H    -0.362000000    -1.329000000    -5.921000000
H    -0.191000000    -0.002000000    -6.630000000
O    -0.206000000     3.223000000     2.707000000
H    -1.027000000     3.616000000     2.410000000
H     0.254000000     2.991000000     1.900000000
O    -5.506000000     2.165000000    -0.108000000
H    -5.690000000     1.358000000    -0.590000000
H    -6.272000000     2.717000000    -0.265000000
O    -0.465000000     6.531000000    -0.217000000
H    -1.117000000     5.878000000    -0.470000000
H    -0.710000000     7.316000000    -0.708000000
O     4.715000000    -2.922000000    -0.945000000
H     4.137000000    -2.422000000    -0.367000000
H     4.346000000    -3.805000000    -0.947000000
O    -3.300000000    -3.849000000    -1.648000000
H    -2.654000000    -3.500000000    -1.034000000
H    -4.045000000    -4.093000000    -1.100000000
O    -0.969000000    -3.537000000     2.910000000
H    -1.327000000    -3.840000000     3.745000000
H    -0.103000000    -3.195000000     3.131000000
O     5.477000000     0.538000000     1.436000000
H     4.926000000    -0.151000000     1.065000000
H     4.945000000     1.331000000     1.373000000
O     1.196000000     3.119000000     5.030000000
H     0.510000000     3.121000000     4.363000000
H     1.932000000     2.669000000     4.616000000
O     0.124000000     1.631000000    -6.267000000
H    -0.571000000     2.284000000    -6.182000000
H     0.770000000     1.881000000    -5.606000000
O     3.573000000    -5.888000000    -0.595000000
H     2.656000000    -5.618000000    -0.637000000
H     3.805000000    -5.807000000     0.330000000
O     5.679000000    -0.461000000    -4.354000000
H     5.288000000    -0.347000000    -3.488000000
H     6.581000000    -0.160000000    -4.251000000
O    -7.045000000    -2.822000000     0.919000000
H    -6.883000000    -1.929000000     0.614000000
H    -7.247000000    -2.724000000     1.849000000
O     8.118000000     0.013000000     0.877000000
H     7.222000000     0.015000000     1.213000000
H     8.186000000     0.823000000     0.370000000
O     7.276000000    -4.686000000    -0.017000000
H     6.562000000    -4.715000000     0.619000000
H     7.288000000    -3.779000000    -0.323000000
O     2.618000000     1.868000000    -3.933000000
H     3.279000000     1.511000000    -3.340000000
H     2.699000000     1.340000000    -4.727000000
O     0.399000000     3.281000000    -2.456000000
H    -0.285000000     3.513000000    -3.084000000
H     1.123000000     2.963000000    -2.996000000
O    -5.895000000     0.242000000    -1.887000000
H    -6.348000000     0.631000000    -2.634000000
H    -5.417000000    -0.501000000    -2.256000000
O     4.619000000     3.231000000    -1.335000000
H     4.593000000     2.971000000    -0.414000000
H     3.921000000     3.881000000    -1.420000000
O     4.944000000    -0.189000000    -1.804000000
H     4.761000000    -1.085000000    -1.523000000
H     4.397000000     0.356000000    -1.238000000
O    -3.367000000     3.126000000     1.500000000
H    -3.809000000     2.469000000     0.962000000
H    -4.015000000     3.372000000     2.159000000
O     5.065000000    -1.979000000     3.509000000
H     4.479000000    -1.625000000     2.840000000
H     4.706000000    -1.659000000     4.336000000
O     1.568000000    -2.744000000     3.722000000
H     2.056000000    -2.006000000     3.356000000
H     2.241000000    -3.380000000     3.964000000
O    -4.758000000     1.245000000     4.340000000
H    -3.838000000     1.201000000     4.081000000
H    -5.117000000     1.969000000     3.826000000
O    -2.200000000    -0.955000000     5.039000000
H    -2.062000000    -0.227000000     4.433000000
H    -3.152000000    -1.025000000     5.115000000
O     7.589000000    -1.776000000    -1.110000000
H     8.151000000    -1.330000000    -0.477000000
H     6.778000000    -1.267000000    -1.110000000
O     0.128000000    -2.208000000     5.876000000
H     0.715000000    -2.359000000     5.136000000
H    -0.640000000    -1.785000000     5.492000000
O    -5.625000000    -0.677000000     1.858000000
H    -6.280000000    -0.003000000     2.041000000
H    -5.071000000    -0.294000000     1.177000000
O     1.291000000    -4.535000000    -0.119000000
H     0.802000000    -4.767000000    -0.908000000
H     1.291000000    -3.577000000    -0.110000000
O     7.017000000     0.480000000     3.642000000
H     6.416000000     0.203000000     2.951000000
H     7.160000000    -0.308000000     4.167000000
O     0.002000000    -4.989000000    -2.529000000
H    -0.041000000    -5.939000000    -2.637000000
H    -0.744000000    -4.656000000    -3.028000000
O     1.056000000     2.682000000     0.216000000
H     0.946000000     3.116000000    -0.631000000
H     0.830000000     1.767000000     0.048000000
O    -3.501000000     0.913000000    -5.294000000
H    -3.720000000     1.257000000    -4.428000000
H    -4.275000000     1.093000000    -5.827000000
O    -5.162000000    -2.057000000    -3.517000000
H    -4.988000000    -2.835000000    -2.987000000
H    -6.008000000    -2.232000000    -3.928000000
O     4.387000000    -3.110000000    -4.570000000
H     4.688000000    -2.203000000    -4.621000000
H     5.143000000    -3.596000000    -4.239000000
O     3.020000000    -4.961000000     4.707000000
H     2.207000000    -5.459000000     4.798000000
H     3.125000000    -4.519000000     5.549000000
O     3.641000000    -1.211000000     5.876000000
H     2.746000000    -1.091000000     6.194000000
H     3.974000000    -1.957000000     6.374000000
