161
-3028.09459
C    -0.581000000    -1.267000000     0.441000000
H    -1.080000000    -2.114000000     0.904000000
C    -1.339000000    -0.225000000    -0.110000000
H    -2.425000000    -0.196000000    -0.144000000
C    -0.656000000     0.926000000    -0.454000000
C    -1.533000000     2.096000000    -0.987000000
H    -2.423000000     2.165000000    -0.359000000
H    -0.952000000     3.003000000    -0.808000000
H    -1.869000000     2.022000000    -2.023000000
C     0.740000000     1.047000000    -0.428000000
H     1.386000000     1.831000000    -0.815000000
C     1.454000000    -0.083000000     0.106000000
H     2.536000000    -0.142000000     0.018000000
C     0.851000000    -1.218000000     0.589000000
C     1.737000000    -2.323000000     1.185000000
O     2.855000000    -2.071000000     1.505000000
O     1.292000000    -3.459000000     1.386000000
O    -4.599000000     5.536000000    -2.503000000
H    -3.769000000     5.091000000    -2.676000000
H    -5.044000000     5.551000000    -3.350000000
O     2.404000000    -3.692000000     5.600000000
H     2.290000000    -4.217000000     4.808000000
H     2.762000000    -2.861000000     5.287000000
O     1.199000000    -4.363000000    -1.361000000
H     0.503000000    -4.460000000    -2.011000000
H     0.756000000    -4.016000000    -0.586000000
O    -3.537000000    -4.505000000     2.895000000
H    -2.674000000    -4.171000000     3.138000000
H    -3.446000000    -4.761000000     1.977000000
O    -1.263000000     2.249000000    -4.859000000
H    -1.419000000     2.997000000    -4.282000000
H    -1.308000000     2.614000000    -5.743000000
O    -1.318000000     6.413000000    -1.823000000
H    -0.463000000     6.052000000    -1.588000000
H    -1.180000000     7.360000000    -1.845000000
O    -4.194000000     1.227000000    -4.570000000
H    -4.127000000     0.315000000    -4.852000000
H    -3.309000000     1.576000000    -4.675000000
O    -5.912000000     0.327000000    -0.060000000
H    -5.465000000     1.092000000     0.302000000
H    -5.733000000     0.366000000    -0.999000000
O    -3.298000000     0.356000000     3.063000000
H    -3.699000000     1.026000000     2.510000000
H    -3.438000000    -0.463000000     2.587000000
O     4.529000000    -3.225000000    -0.346000000
H     4.121000000    -2.978000000     0.484000000
H     4.161000000    -2.615000000    -0.985000000
O     2.598000000    -4.952000000     3.216000000
H     2.410000000    -4.366000000     2.483000000
H     2.292000000    -5.810000000     2.920000000
O     7.105000000    -3.730000000    -0.993000000
H     6.211000000    -3.746000000    -0.650000000
H     7.380000000    -4.646000000    -0.988000000
O     0.356000000     0.605000000    -3.493000000
H    -0.349000000     1.067000000    -3.946000000
H    -0.055000000    -0.192000000    -3.158000000
O     3.604000000    -5.777000000     0.031000000
H     2.665000000    -5.733000000    -0.147000000
H     4.003000000    -5.234000000    -0.648000000
O    -0.968000000    -3.823000000     3.086000000
H    -0.172000000    -4.149000000     2.666000000
H    -0.698000000    -3.011000000     3.514000000
O     0.964000000    -6.462000000     1.643000000
H     1.047000000    -5.567000000     1.313000000
H     0.304000000    -6.865000000     1.079000000
O    -2.765000000     2.854000000     4.569000000
H    -1.921000000     3.295000000     4.663000000
H    -2.550000000     2.006000000     4.181000000
O    -2.308000000     4.763000000    -3.768000000
H    -1.785000000     5.185000000    -4.450000000
H    -1.897000000     5.035000000    -2.948000000
O     5.447000000    -5.275000000     2.045000000
H     5.296000000    -4.400000000     2.404000000
H     4.777000000    -5.375000000     1.369000000
O     4.621000000     2.147000000    -2.299000000
H     5.180000000     1.838000000    -3.012000000
H     3.798000000     2.386000000    -2.726000000
O    -1.309000000     4.246000000     2.038000000
H    -2.090000000     4.793000000     1.953000000
H    -1.408000000     3.580000000     1.357000000
O    -0.367000000    -6.589000000     4.041000000
H     0.072000000    -6.270000000     3.253000000
H    -1.077000000    -5.964000000     4.190000000
O    -1.354000000    -5.640000000    -1.555000000
H    -2.052000000    -5.014000000    -1.746000000
H    -1.674000000    -6.132000000    -0.798000000
O     1.007000000     6.460000000     2.327000000
H     0.065000000     6.414000000     2.489000000
H     1.206000000     5.660000000     1.840000000
O     4.120000000     2.521000000     0.673000000
H     4.190000000     2.128000000    -0.197000000
H     4.832000000     3.160000000     0.705000000
O     3.972000000    -1.716000000     4.130000000
H     3.901000000    -0.768000000     4.015000000
H     3.659000000    -2.082000000     3.303000000
O     3.073000000    -8.462000000    -0.040000000
H     2.239000000    -8.764000000     0.319000000
H     3.078000000    -7.519000000     0.127000000
O     2.815000000     0.735000000     3.092000000
H     2.830000000    -0.034000000     2.523000000
H     2.495000000     1.442000000     2.531000000
O     3.033000000     0.030000000    -4.317000000
H     3.038000000    -0.076000000    -5.268000000
H     2.202000000     0.466000000    -4.129000000
O    -6.022000000     3.894000000    -0.892000000
H    -5.550000000     4.567000000    -1.382000000
H    -5.924000000     3.102000000    -1.420000000
O     5.318000000    -1.976000000     6.314000000
H     4.863000000    -1.925000000     5.473000000
H     5.434000000    -2.914000000     6.466000000
O    -1.483000000    -1.341000000    -3.191000000
H    -2.174000000    -1.603000000    -3.800000000
H    -1.880000000    -1.431000000    -2.325000000
O    -3.720000000    -3.327000000    -2.021000000
H    -4.350000000    -2.637000000    -2.228000000
H    -3.667000000    -3.850000000    -2.821000000
O     7.927000000    -1.331000000     1.071000000
H     7.371000000    -1.869000000     1.634000000
H     8.189000000    -1.918000000     0.361000000
O    -4.796000000    -2.135000000     3.118000000
H    -4.792000000    -3.074000000     3.304000000
H    -4.569000000    -1.724000000     3.953000000
O    -0.185000000     4.063000000     4.544000000
H     0.704000000     4.411000000     4.477000000
H    -0.590000000     4.278000000     3.704000000
O     4.155000000    -1.033000000    -1.995000000
H     3.615000000    -0.432000000    -2.509000000
H     4.982000000    -0.568000000    -1.873000000
O     0.715000000     1.711000000     5.172000000
H     0.370000000     2.565000000     4.914000000
H     1.242000000     1.430000000     4.424000000
O     1.805000000     2.954000000    -3.010000000
H     1.357000000     2.116000000    -2.896000000
H     1.711000000     3.150000000    -3.942000000
O    -3.803000000    -5.118000000     0.109000000
H    -4.197000000    -5.919000000    -0.236000000
H    -3.891000000    -4.482000000    -0.601000000
O    -4.851000000     2.788000000     1.362000000
H    -5.398000000     2.951000000     2.131000000
H    -5.242000000     3.324000000     0.672000000
O     1.067000000     5.020000000    -0.936000000
H     1.537000000     4.885000000    -0.112000000
H     1.321000000     4.276000000    -1.481000000
O     2.097000000     4.009000000     1.285000000
H     2.840000000     3.428000000     1.121000000
H     2.187000000     4.259000000     2.205000000
O    -7.240000000    -1.885000000    -1.198000000
H    -6.633000000    -1.716000000    -0.477000000
H    -8.106000000    -1.875000000    -0.790000000
O     2.481000000    -6.254000000    -2.727000000
H     2.144000000    -5.411000000    -2.424000000
H     3.254000000    -6.030000000    -3.246000000
O    -0.819000000    -1.229000000     5.127000000
H    -0.477000000    -0.343000000     5.241000000
H    -0.916000000    -1.565000000     6.018000000
O    -5.898000000     1.622000000    -2.614000000
H    -5.194000000     1.616000000    -3.262000000
H    -6.676000000     1.353000000    -3.103000000
O    -3.498000000     6.327000000     1.422000000
H    -3.746000000     6.027000000     2.297000000
H    -4.090000000     7.057000000     1.242000000
