161
-3037.41366
C    -0.178000000    -1.151000000     0.862000000
H    -0.416000000    -2.012000000     1.482000000
C    -1.148000000    -0.227000000     0.546000000
H    -2.148000000    -0.409000000     0.930000000
C    -0.847000000     0.779000000    -0.356000000
C    -1.950000000     1.693000000    -0.808000000
H    -2.132000000     1.579000000    -1.879000000
H    -2.868000000     1.550000000    -0.234000000
H    -1.648000000     2.710000000    -0.550000000
C     0.432000000     0.978000000    -0.813000000
H     0.553000000     1.875000000    -1.414000000
C     1.446000000     0.109000000    -0.448000000
H     2.459000000     0.253000000    -0.814000000
C     1.153000000    -1.009000000     0.369000000
C     2.144000000    -1.969000000     0.927000000
O     3.295000000    -1.733000000     0.794000000
O     1.853000000    -3.018000000     1.405000000
O    -4.865000000     4.748000000    -2.085000000
H    -4.347000000     4.497000000    -2.850000000
H    -5.761000000     4.820000000    -2.416000000
O     2.029000000    -4.049000000     6.027000000
H     1.495000000    -4.835000000     6.140000000
H     1.573000000    -3.543000000     5.355000000
O     1.667000000    -2.683000000    -2.975000000
H     1.473000000    -3.301000000    -2.270000000
H     0.911000000    -2.095000000    -2.992000000
O    -6.141000000     1.602000000    -5.345000000
H    -5.533000000     1.420000000    -6.061000000
H    -5.586000000     1.921000000    -4.633000000
O     5.090000000    -5.761000000     1.864000000
H     4.152000000    -5.701000000     1.685000000
H     5.200000000    -5.331000000     2.712000000
O    -2.313000000    -6.604000000     2.048000000
H    -2.538000000    -5.674000000     2.092000000
H    -2.768000000    -6.996000000     2.792000000
O    -2.755000000    -3.288000000     4.790000000
H    -1.853000000    -3.284000000     4.468000000
H    -3.292000000    -3.279000000     3.998000000
O    -1.803000000     2.228000000    -4.914000000
H    -1.143000000     2.922000000    -4.926000000
H    -1.303000000     1.420000000    -5.029000000
O    -0.290000000     6.595000000    -3.064000000
H     0.316000000     6.413000000    -2.345000000
H    -0.225000000     7.541000000    -3.198000000
O    -4.375000000     2.194000000    -3.337000000
H    -3.572000000     2.380000000    -3.823000000
H    -4.478000000     2.942000000    -2.749000000
O    -5.854000000     0.584000000     1.068000000
H    -6.371000000    -0.134000000     0.704000000
H    -6.394000000     1.362000000     0.930000000
O    -2.156000000     0.804000000     4.501000000
H    -2.206000000     1.438000000     5.216000000
H    -3.068000000     0.611000000     4.287000000
O     4.844000000    -0.045000000    -0.085000000
H     4.164000000    -0.595000000     0.304000000
H     4.797000000    -0.235000000    -1.022000000
O    -3.720000000     4.693000000    -4.488000000
H    -3.909000000     4.320000000    -5.349000000
H    -2.765000000     4.682000000    -4.427000000
O     2.512000000    -5.451000000     1.688000000
H     2.206000000    -4.545000000     1.648000000
H     1.780000000    -5.934000000     2.070000000
O     6.772000000    -2.431000000    -1.232000000
H     6.209000000    -1.857000000    -1.751000000
H     6.256000000    -2.629000000    -0.450000000
O     3.689000000    -1.526000000    -4.372000000
H     3.307000000    -1.170000000    -5.174000000
H     2.988000000    -2.049000000    -3.983000000
O     0.865000000     0.726000000    -4.993000000
H     1.308000000     1.435000000    -4.527000000
H     0.621000000     0.104000000    -4.307000000
O     5.489000000    -3.011000000     1.204000000
H     5.263000000    -3.939000000     1.264000000
H     4.650000000    -2.568000000     1.075000000
O     0.113000000    -2.938000000     3.994000000
H     0.483000000    -3.089000000     3.125000000
H     0.675000000    -2.268000000     4.382000000
O     0.662000000    -4.316000000    -0.670000000
H     1.087000000    -3.784000000     0.002000000
H     0.730000000    -5.213000000    -0.343000000
O    -1.528000000     4.702000000     3.482000000
H    -0.855000000     4.054000000     3.274000000
H    -2.100000000     4.707000000     2.714000000
O     4.080000000     2.213000000     4.401000000
H     3.334000000     2.812000000     4.418000000
H     3.745000000     1.426000000     3.971000000
O     7.971000000    -2.637000000     2.234000000
H     7.720000000    -2.056000000     2.952000000
H     7.144000000    -2.862000000     1.808000000
O     0.129000000     4.616000000     0.352000000
H    -0.658000000     5.098000000     0.098000000
H     0.795000000     4.898000000    -0.275000000
O     0.377000000    -6.993000000     3.244000000
H    -0.195000000    -7.656000000     3.630000000
H    -0.217000000    -6.415000000     2.764000000
O    -1.641000000    -3.181000000    -2.031000000
H    -2.393000000    -3.042000000    -1.455000000
H    -0.944000000    -3.478000000    -1.447000000
O     4.951000000     2.491000000     0.995000000
H     5.324000000     1.874000000     0.366000000
H     4.337000000     1.967000000     1.509000000
O     3.073000000     1.035000000     2.219000000
H     2.130000000     1.010000000     2.380000000
H     3.239000000     0.282000000     1.653000000
O     2.864000000    -7.711000000    -0.199000000
H     2.799000000    -7.135000000     0.563000000
H     3.446000000    -7.247000000    -0.801000000
O     0.426000000     3.261000000     2.568000000
H     0.433000000     2.304000000     2.553000000
H     0.457000000     3.515000000     1.646000000
O    -6.369000000     4.285000000     0.088000000
H    -6.296000000     5.061000000     0.645000000
H    -5.871000000     4.507000000    -0.698000000
O     4.038000000    -1.821000000     3.790000000
H     3.895000000    -2.102000000     2.887000000
H     4.194000000    -2.633000000     4.272000000
O    -0.530000000    -1.047000000    -3.263000000
H    -1.233000000    -1.667000000    -3.068000000
H    -0.379000000    -0.588000000    -2.437000000
O    -3.849000000    -3.153000000    -0.619000000
H    -4.013000000    -2.338000000    -1.093000000
H    -4.693000000    -3.603000000    -0.617000000
O     7.240000000     0.882000000     1.835000000
H     7.038000000     0.223000000     2.500000000
H     7.085000000     0.437000000     1.002000000
O    -4.970000000     0.442000000     3.982000000
H    -5.223000000     0.512000000     3.061000000
H    -5.502000000    -0.278000000     4.321000000
O     1.732000000    -0.863000000     5.202000000
H     1.896000000    -0.835000000     6.145000000
H     2.492000000    -1.319000000     4.841000000
O     5.442000000    -0.269000000    -2.619000000
H     4.982000000    -0.782000000    -3.284000000
H     5.371000000     0.636000000    -2.922000000
O    -4.655000000    -0.659000000    -2.402000000
H    -4.518000000    -1.035000000    -3.272000000
H    -4.381000000     0.253000000    -2.489000000
O     2.274000000     2.528000000    -3.330000000
H     1.539000000     3.086000000    -3.078000000
H     3.048000000     2.993000000    -3.012000000
O    -3.774000000    -3.582000000     2.288000000
H    -4.521000000    -4.176000000     2.220000000
H    -3.738000000    -3.145000000     1.437000000
O    -3.291000000     4.466000000     1.082000000
H    -3.762000000     4.381000000     1.911000000
H    -3.871000000     4.065000000     0.434000000
O     1.791000000     5.872000000    -1.575000000
H     2.454000000     5.234000000    -1.310000000
H     2.289000000     6.658000000    -1.798000000
O     3.876000000     4.068000000    -1.272000000
H     4.215000000     3.745000000    -0.437000000
H     4.640000000     4.441000000    -1.712000000
O     1.970000000    -5.787000000    -3.071000000
H     1.958000000    -5.127000000    -2.377000000
H     2.799000000    -5.641000000    -3.526000000
O     0.504000000     0.741000000     3.525000000
H    -0.428000000     0.762000000     3.741000000
H     0.880000000     0.118000000     4.146000000
O    -1.954000000     6.447000000     0.236000000
H    -2.453000000     5.704000000     0.575000000
H    -2.612000000     7.122000000     0.068000000
