161
-3037.54939
C     0.179000000    -1.044000000     1.020000000
H     0.182000000    -1.767000000     1.832000000
C    -0.983000000    -0.375000000     0.660000000
H    -1.906000000    -0.582000000     1.195000000
C    -1.065000000     0.554000000    -0.358000000
C    -2.440000000     1.212000000    -0.614000000
H    -2.357000000     1.969000000    -1.397000000
H    -3.181000000     0.478000000    -0.937000000
H    -2.804000000     1.617000000     0.332000000
C     0.145000000     0.902000000    -0.961000000
H     0.161000000     1.638000000    -1.761000000
C     1.352000000     0.277000000    -0.607000000
H     2.299000000     0.535000000    -1.075000000
C     1.383000000    -0.698000000     0.401000000
C     2.674000000    -1.324000000     0.781000000
O     3.677000000    -1.044000000     0.138000000
O     2.680000000    -2.346000000     1.357000000
O     3.182000000    -2.482000000    -3.191000000
H     2.283000000    -2.693000000    -3.442000000
H     3.244000000    -2.745000000    -2.273000000
O    -4.743000000    -2.981000000    -3.666000000
H    -4.369000000    -3.860000000    -3.604000000
H    -5.588000000    -3.048000000    -3.223000000
O     4.420000000     3.878000000     2.398000000
H     3.870000000     3.251000000     1.929000000
H     3.835000000     4.609000000     2.597000000
O     6.392000000     2.386000000     1.094000000
H     6.041000000     3.047000000     1.692000000
H     5.650000000     1.810000000     0.912000000
O    -2.427000000     4.095000000     1.333000000
H    -3.267000000     3.654000000     1.206000000
H    -2.247000000     4.002000000     2.269000000
O    -2.894000000    -4.810000000     1.671000000
H    -2.159000000    -4.741000000     1.062000000
H    -2.485000000    -4.871000000     2.534000000
O     4.406000000    -1.090000000    -4.990000000
H     4.891000000    -0.430000000    -4.496000000
H     3.893000000    -1.556000000    -4.330000000
O     7.741000000    -3.106000000     1.662000000
H     7.307000000    -3.195000000     2.510000000
H     7.985000000    -2.182000000     1.613000000
O    -6.873000000     2.500000000    -2.583000000
H    -6.445000000     2.007000000    -3.283000000
H    -7.567000000     2.989000000    -3.025000000
O    -6.108000000     0.749000000     0.234000000
H    -5.545000000     0.372000000    -0.442000000
H    -6.929000000     0.944000000    -0.219000000
O    -4.914000000     3.849000000    -0.975000000
H    -4.842000000     3.276000000    -0.211000000
H    -5.349000000     3.312000000    -1.637000000
O    -1.704000000     1.060000000     4.168000000
H    -1.034000000     0.539000000     4.610000000
H    -2.325000000     0.414000000     3.831000000
O     3.729000000    -7.186000000    -0.319000000
H     3.624000000    -6.234000000    -0.304000000
H     2.843000000    -7.522000000    -0.457000000
O    -0.396000000     4.797000000    -3.440000000
H    -1.116000000     4.760000000    -2.810000000
H     0.387000000     4.919000000    -2.903000000
O     2.512000000    -2.382000000     5.159000000
H     2.882000000    -2.552000000     6.025000000
H     2.406000000    -3.250000000     4.770000000
O     1.678000000    -4.219000000     3.371000000
H     1.811000000    -3.566000000     2.684000000
H     0.731000000    -4.234000000     3.507000000
O    -1.046000000    -5.856000000    -0.318000000
H    -0.458000000    -6.031000000    -1.053000000
H    -1.181000000    -6.711000000     0.090000000
O     3.732000000     1.346000000     1.302000000
H     3.437000000     1.108000000     2.181000000
H     3.517000000     0.586000000     0.762000000
O     6.107000000    -0.225000000    -0.474000000
H     5.893000000     0.113000000    -1.343000000
H     5.309000000    -0.671000000    -0.188000000
O    -2.001000000    -2.191000000    -3.905000000
H    -2.908000000    -2.471000000    -4.035000000
H    -1.743000000    -2.596000000    -3.077000000
O     4.600000000    -2.038000000     3.142000000
H     3.854000000    -1.946000000     3.734000000
H     4.208000000    -2.104000000     2.271000000
O     0.324000000    -6.783000000     3.882000000
H    -0.236000000    -6.161000000     4.345000000
H     1.037000000    -6.249000000     3.532000000
O     0.292000000     2.549000000     2.742000000
H    -0.421000000     2.167000000     3.254000000
H     0.284000000     2.059000000     1.919000000
O    -0.371000000     2.782000000    -5.277000000
H    -0.556000000     3.576000000    -4.775000000
H     0.233000000     2.285000000    -4.725000000
O     5.885000000    -3.120000000    -0.388000000
H     5.233000000    -2.571000000     0.047000000
H     6.610000000    -3.170000000     0.236000000
O    -0.812000000    -3.490000000     3.826000000
H    -0.449000000    -3.396000000     4.706000000
H    -1.645000000    -3.020000000     3.859000000
O     1.594000000     0.973000000    -4.276000000
H     1.551000000     0.076000000    -4.605000000
H     2.163000000     0.920000000    -3.508000000
O    -4.817000000     2.422000000     1.690000000
H    -5.214000000     1.658000000     1.270000000
H    -5.497000000     2.752000000     2.277000000
O    -5.500000000    -0.465000000     3.503000000
H    -5.005000000    -0.602000000     2.695000000
H    -6.411000000    -0.621000000     3.255000000
O    -2.133000000     4.696000000    -1.469000000
H    -1.718000000     4.326000000    -0.690000000
H    -2.916000000     4.162000000    -1.600000000
O     3.334000000    -4.446000000    -0.330000000
H     4.266000000    -4.233000000    -0.365000000
H     2.985000000    -3.883000000     0.361000000
O    -3.114000000    -1.822000000     4.093000000
H    -3.050000000    -2.087000000     5.011000000
H    -4.030000000    -1.567000000     3.981000000
O    -1.125000000    -3.466000000    -1.414000000
H    -0.666000000    -2.716000000    -1.036000000
H    -0.877000000    -4.204000000    -0.857000000
O     0.527000000    -0.530000000     4.971000000
H     1.222000000    -1.182000000     4.882000000
H     0.033000000    -0.810000000     5.742000000
O     6.020000000     0.358000000     3.819000000
H     5.075000000     0.327000000     3.969000000
H     6.192000000    -0.366000000     3.218000000
O    -4.424000000    -2.129000000     0.951000000
H    -3.915000000    -1.920000000     0.168000000
H    -3.977000000    -2.884000000     1.333000000
O     0.743000000    -3.269000000    -3.630000000
H     0.543000000    -3.934000000    -4.289000000
H     0.272000000    -3.557000000    -2.849000000
O     3.195000000     0.674000000     4.128000000
H     2.595000000    -0.071000000     4.152000000
H     2.634000000     1.438000000     4.266000000
O    -2.501000000     1.291000000    -6.159000000
H    -2.717000000     1.795000000    -6.943000000
H    -1.659000000     1.644000000    -5.871000000
O     6.118000000     0.549000000    -3.119000000
H     6.913000000     0.125000000    -3.440000000
H     6.167000000     1.441000000    -3.464000000
O     1.168000000     5.370000000    -0.896000000
H     0.861000000     5.096000000    -0.032000000
H     2.100000000     5.551000000    -0.773000000
O     5.464000000    -5.236000000    -2.324000000
H     5.160000000    -5.995000000    -1.825000000
H     5.693000000    -4.588000000    -1.658000000
O    -5.863000000     0.511000000    -4.242000000
H    -6.551000000    -0.096000000    -4.515000000
H    -5.574000000     0.927000000    -5.054000000
O     8.152000000    -0.079000000     1.221000000
H     8.616000000     0.741000000     1.053000000
H     7.462000000    -0.104000000     0.558000000
O     5.365000000    -4.175000000     4.919000000
H     4.980000000    -3.580000000     4.275000000
H     6.309000000    -4.102000000     4.779000000
O    -4.960000000    -0.784000000    -1.894000000
H    -4.292000000    -1.319000000    -2.324000000
H    -5.193000000    -0.123000000    -2.546000000
O    -0.743000000     6.440000000     0.974000000
H    -1.406000000     5.751000000     1.020000000
H    -0.750000000     6.838000000     1.845000000
O    -4.238000000     6.548000000    -0.307000000
H    -3.417000000     6.201000000    -0.656000000
H    -4.905000000     5.927000000    -0.602000000
