161
-3040.83881
C     0.531000000    -1.378000000    -0.076000000
H     0.870000000    -2.383000000    -0.315000000
C    -0.777000000    -0.985000000    -0.003000000
H    -1.541000000    -1.753000000    -0.086000000
C    -1.218000000     0.345000000     0.076000000
C    -2.627000000     0.700000000     0.017000000
H    -3.057000000     0.286000000     0.931000000
H    -2.760000000     1.783000000    -0.026000000
H    -3.157000000     0.307000000    -0.854000000
C    -0.222000000     1.288000000     0.157000000
H    -0.449000000     2.350000000     0.213000000
C     1.110000000     0.905000000     0.208000000
H     1.893000000     1.585000000     0.535000000
C     1.461000000    -0.396000000    -0.012000000
C     2.933000000    -0.799000000    -0.153000000
O     3.829000000    -0.017000000     0.081000000
O     3.173000000    -1.846000000    -0.693000000
O     0.966000000     5.307000000     1.034000000
H     1.698000000     5.068000000     0.465000000
H     0.744000000     6.201000000     0.773000000
O     0.273000000     0.828000000    -3.377000000
H     0.534000000     1.696000000    -3.070000000
H     0.284000000     0.282000000    -2.591000000
O    -0.643000000    -1.729000000     2.865000000
H    -0.802000000    -1.439000000     1.967000000
H    -1.254000000    -1.217000000     3.394000000
O    -2.652000000    -6.824000000     0.907000000
H    -2.772000000    -5.892000000     1.090000000
H    -1.720000000    -6.981000000     1.062000000
O     2.795000000    -0.282000000    -5.303000000
H     2.162000000     0.111000000    -4.702000000
H     3.472000000    -0.646000000    -4.733000000
O     1.048000000     2.903000000    -2.322000000
H     1.471000000     2.895000000    -1.464000000
H     0.685000000     3.785000000    -2.402000000
O     7.508000000    -1.545000000    -1.737000000
H     6.982000000    -1.922000000    -1.033000000
H     8.302000000    -2.079000000    -1.755000000
O     5.254000000     1.963000000     0.896000000
H     4.415000000     1.528000000     0.741000000
H     5.290000000     2.083000000     1.845000000
O     3.015000000    -3.641000000     1.133000000
H     2.846000000    -3.031000000     0.415000000
H     3.969000000    -3.717000000     1.163000000
O    -0.297000000     3.570000000     2.876000000
H    -0.138000000     4.021000000     2.047000000
H     0.297000000     2.820000000     2.859000000
O     4.988000000    -1.622000000    -3.942000000
H     5.144000000    -1.072000000    -3.174000000
H     5.486000000    -1.201000000    -4.642000000
O     3.154000000    -3.184000000    -2.942000000
H     3.888000000    -2.762000000    -3.388000000
H     3.080000000    -2.718000000    -2.109000000
O    -4.290000000     5.866000000    -2.641000000
H    -5.089000000     5.565000000    -2.209000000
H    -3.611000000     5.787000000    -1.971000000
O    -4.094000000     0.252000000    -4.712000000
H    -3.278000000     0.141000000    -5.199000000
H    -4.518000000    -0.605000000    -4.756000000
O    -3.641000000    -1.863000000     3.899000000
H    -3.094000000    -2.360000000     4.506000000
H    -3.286000000    -0.974000000     3.929000000
O    -3.497000000    -4.629000000     2.427000000
H    -4.000000000    -5.168000000     3.037000000
H    -3.406000000    -3.786000000     2.871000000
O    -6.258000000    -0.998000000     2.394000000
H    -6.409000000    -0.184000000     2.874000000
H    -5.342000000    -1.212000000     2.569000000
O     5.617000000     1.813000000     3.460000000
H     5.079000000     1.150000000     3.892000000
H     6.117000000     2.215000000     4.169000000
O     1.435000000    -4.251000000    -4.840000000
H     1.690000000    -5.174000000    -4.853000000
H     1.999000000    -3.856000000    -4.175000000
O     5.292000000     0.830000000    -2.496000000
H     4.725000000     1.395000000    -3.020000000
H     4.878000000     0.809000000    -1.633000000
O    -0.023000000    -6.595000000     0.880000000
H     0.620000000    -6.217000000     1.480000000
H     0.418000000    -6.603000000     0.031000000
O    -2.591000000     4.767000000    -0.136000000
H    -1.826000000     4.741000000    -0.711000000
H    -2.435000000     5.517000000     0.437000000
O    -5.587000000     1.360000000     0.220000000
H    -5.631000000     1.615000000    -0.702000000
H    -4.996000000     0.608000000     0.232000000
O     2.743000000     4.912000000    -1.091000000
H     2.565000000     5.306000000    -1.945000000
H     3.593000000     4.484000000    -1.198000000
O    -0.559000000     5.082000000    -2.138000000
H    -0.579000000     6.018000000    -1.942000000
H    -0.957000000     5.010000000    -3.006000000
O     5.219000000     3.787000000    -1.379000000
H     5.933000000     3.590000000    -1.984000000
H     5.390000000     3.233000000    -0.618000000
O    -7.449000000     3.231000000     0.965000000
H    -7.445000000     3.786000000     1.744000000
H    -6.642000000     2.720000000     1.029000000
O     5.807000000    -2.211000000     0.378000000
H     6.299000000    -1.677000000     1.002000000
H     5.024000000    -1.696000000     0.186000000
O     8.084000000     1.374000000     0.630000000
H     7.142000000     1.438000000     0.468000000
H     8.216000000     0.472000000     0.922000000
O    -4.045000000    -3.201000000    -0.444000000
H    -3.193000000    -3.175000000    -0.879000000
H    -3.928000000    -3.824000000     0.274000000
O     6.686000000    -4.702000000    -0.025000000
H     6.473000000    -3.814000000     0.265000000
H     7.240000000    -5.054000000     0.672000000
O     2.781000000    -1.284000000     3.589000000
H     2.404000000    -1.746000000     2.840000000
H     3.267000000    -1.956000000     4.066000000
O    -7.784000000    -0.779000000     0.069000000
H    -7.339000000    -0.732000000     0.915000000
H    -7.075000000    -0.821000000    -0.573000000
O    -0.043000000    -4.041000000     4.293000000
H     0.601000000    -4.590000000     3.847000000
H    -0.224000000    -3.333000000     3.674000000
O    -3.824000000     2.904000000     4.009000000
H    -3.988000000     3.157000000     3.100000000
H    -3.390000000     3.665000000     4.394000000
O    -0.863000000    -4.211000000    -1.008000000
H    -0.663000000    -4.207000000    -1.944000000
H    -0.030000000    -4.002000000    -0.585000000
O    -2.088000000     0.495000000     4.156000000
H    -1.915000000     0.575000000     5.094000000
H    -2.297000000     1.385000000     3.874000000
O    -6.432000000     1.611000000     4.053000000
H    -6.835000000     2.473000000     3.952000000
H    -5.502000000     1.795000000     4.182000000
O     7.305000000    -0.637000000     2.543000000
H     6.790000000     0.128000000     2.801000000
H     7.447000000    -1.117000000     3.360000000
O    -4.200000000     3.518000000     1.511000000
H    -4.648000000     2.939000000     0.895000000
H    -3.464000000     3.875000000     1.013000000
O     1.583000000    -6.436000000    -1.393000000
H     1.070000000    -6.427000000    -2.201000000
H     2.430000000    -6.066000000    -1.643000000
O    -1.276000000     6.038000000     3.550000000
H    -0.842000000     5.200000000     3.395000000
H    -0.711000000     6.488000000     4.178000000
O    -5.562000000     1.927000000    -2.621000000
H    -5.847000000     2.646000000    -3.186000000
H    -4.956000000     1.422000000    -3.163000000
O     4.162000000    -5.433000000    -1.481000000
H     4.574000000    -4.823000000    -0.868000000
H     3.837000000    -4.878000000    -2.189000000
O     0.845000000     0.696000000     4.300000000
H     1.505000000     0.078000000     3.988000000
H     0.009000000     0.268000000     4.116000000
O    -5.855000000    -1.395000000    -1.611000000
H    -6.003000000    -1.681000000    -2.512000000
H    -5.228000000    -2.028000000    -1.258000000
O     4.143000000     4.812000000     1.793000000
H     4.383000000     3.997000000     1.352000000
H     4.929000000     5.062000000     2.278000000
O     1.695000000    -5.431000000     2.915000000
H     2.190000000    -4.962000000     2.243000000
H     2.364000000    -5.797000000     3.493000000
