161
-3059.68883
C     0.708000000    -1.258000000     0.240000000
H     1.031000000    -2.250000000     0.545000000
C    -0.570000000    -0.950000000     0.620000000
H    -1.012000000    -1.692000000     1.281000000
C    -1.199000000     0.269000000     0.369000000
C    -2.450000000     0.640000000     1.032000000
H    -2.679000000    -0.139000000     1.762000000
H    -2.624000000     1.687000000     1.289000000
H    -3.107000000     0.553000000     0.164000000
C    -0.469000000     1.188000000    -0.444000000
H    -0.997000000     2.111000000    -0.670000000
C     0.783000000     0.872000000    -0.871000000
H     1.416000000     1.572000000    -1.410000000
C     1.416000000    -0.377000000    -0.590000000
C     2.844000000    -0.719000000    -1.054000000
O     3.340000000    -0.154000000    -1.999000000
O     3.561000000    -1.351000000    -0.268000000
O    -1.788000000     1.526000000    -4.615000000
H    -1.602000000     2.224000000    -3.987000000
H    -2.609000000     1.140000000    -4.308000000
O    -4.528000000    -1.223000000     3.982000000
H    -3.802000000    -1.847000000     3.990000000
H    -5.285000000    -1.740000000     3.707000000
O     2.512000000    -2.804000000    -5.727000000
H     2.878000000    -3.010000000    -6.587000000
H     3.250000000    -2.451000000    -5.230000000
O     0.001000000     4.569000000    -4.305000000
H     0.797000000     4.651000000    -3.781000000
H    -0.652000000     4.225000000    -3.696000000
O     5.954000000     0.754000000    -1.417000000
H     5.043000000     0.689000000    -1.701000000
H     5.970000000     1.515000000    -0.837000000
O     4.083000000    -4.884000000     1.701000000
H     3.654000000    -5.737000000     1.623000000
H     3.833000000    -4.569000000     2.569000000
O     1.955000000     2.193000000    -6.123000000
H     1.116000000     2.450000000    -5.740000000
H     2.452000000     1.831000000    -5.389000000
O     0.605000000     6.838000000    -0.180000000
H     1.073000000     6.176000000    -0.689000000
H     0.824000000     6.638000000     0.731000000
O    -5.362000000     4.238000000     4.216000000
H    -5.243000000     4.040000000     5.145000000
H    -5.432000000     3.381000000     3.796000000
O     5.338000000    -1.658000000     4.113000000
H     5.114000000    -0.882000000     4.626000000
H     5.656000000    -1.310000000     3.279000000
O     5.966000000     2.611000000    -4.177000000
H     6.366000000     2.739000000    -3.317000000
H     6.545000000     3.076000000    -4.781000000
O     2.446000000    -3.950000000    -0.923000000
H     2.155000000    -3.411000000    -1.658000000
H     2.803000000    -3.324000000    -0.293000000
O    -5.192000000     1.437000000     3.368000000
H    -6.045000000     1.462000000     3.802000000
H    -4.919000000     0.522000000     3.431000000
O    -5.586000000    -4.006000000     1.244000000
H    -5.594000000    -3.471000000     0.450000000
H    -4.936000000    -3.588000000     1.809000000
O    -4.989000000     2.728000000     0.987000000
H    -5.627000000     3.426000000     0.837000000
H    -5.175000000     2.420000000     1.874000000
O     2.933000000    -1.252000000     2.379000000
H     3.682000000    -1.781000000     2.654000000
H     3.049000000    -1.145000000     1.435000000
O     3.428000000     1.451000000     3.312000000
H     3.228000000     0.519000000     3.226000000
H     2.713000000     1.893000000     2.854000000
O     0.244000000    -0.363000000    -3.821000000
H    -0.365000000     0.181000000    -4.320000000
H     0.228000000     0.007000000    -2.939000000
O     4.971000000    -1.924000000    -3.384000000
H     5.789000000    -2.133000000    -2.934000000
H     4.540000000    -1.287000000    -2.814000000
O     5.101000000    -0.167000000    -6.482000000
H     5.744000000     0.367000000    -6.949000000
H     4.666000000     0.446000000    -5.890000000
O    -2.230000000     6.537000000    -0.321000000
H    -2.593000000     7.048000000    -1.044000000
H    -1.293000000     6.732000000    -0.337000000
O    -5.349000000    -1.954000000    -0.499000000
H    -5.464000000    -1.020000000    -0.673000000
H    -4.463000000    -2.147000000    -0.806000000
O     1.434000000     4.048000000    -0.173000000
H     2.109000000     4.466000000     0.363000000
H     1.836000000     3.958000000    -1.037000000
O    -2.018000000     4.062000000    -2.690000000
H    -2.951000000     3.908000000    -2.840000000
H    -1.993000000     4.706000000    -1.982000000
O     3.552000000     1.407000000    -4.010000000
H     4.469000000     1.658000000    -3.898000000
H     3.424000000     0.687000000    -3.393000000
O     5.756000000    -2.837000000    -0.297000000
H     5.415000000    -3.516000000     0.286000000
H     5.019000000    -2.239000000    -0.424000000
O    -2.835000000    -2.691000000    -1.623000000
H    -2.168000000    -2.859000000    -0.958000000
H    -3.049000000    -3.555000000    -1.973000000
O     8.242000000    -0.552000000    -1.692000000
H     8.169000000    -1.450000000    -1.368000000
H     7.359000000    -0.193000000    -1.603000000
O    -5.481000000     0.751000000    -0.832000000
H    -5.219000000     1.419000000    -0.198000000
H    -5.904000000     1.243000000    -1.536000000
O     0.876000000     2.287000000     2.041000000
H     0.759000000     1.697000000     1.297000000
H     0.768000000     3.163000000     1.671000000
O     1.015000000    -6.163000000    -0.058000000
H     1.263000000    -5.254000000    -0.230000000
H     1.513000000    -6.403000000     0.723000000
O    -2.971000000     2.622000000     4.954000000
H    -3.406000000     2.332000000     4.153000000
H    -2.583000000     3.467000000     4.725000000
O    -3.245000000    -3.359000000     2.555000000
H    -2.850000000    -3.843000000     1.830000000
H    -2.520000000    -2.862000000     2.934000000
O     1.090000000    -2.827000000    -3.356000000
H     0.711000000    -1.963000000    -3.516000000
H     1.761000000    -2.923000000    -4.031000000
O    -1.056000000    -2.358000000     4.173000000
H    -0.315000000    -1.763000000     4.058000000
H    -1.130000000    -2.467000000     5.121000000
O    -2.298000000    -4.841000000     0.162000000
H    -2.996000000    -5.482000000     0.029000000
H    -1.529000000    -5.236000000    -0.249000000
O     2.271000000     3.685000000    -2.793000000
H     2.509000000     2.794000000    -3.048000000
H     2.962000000     4.233000000    -3.164000000
O     5.694000000    -0.042000000     1.451000000
H     5.406000000     0.843000000     1.229000000
H     5.267000000    -0.602000000     0.802000000
O     5.706000000     2.638000000     0.700000000
H     6.320000000     3.360000000     0.569000000
H     4.960000000     3.036000000     1.149000000
O    -2.821000000     4.164000000     1.311000000
H    -2.848000000     4.675000000     0.502000000
H    -3.483000000     3.484000000     1.187000000
O    -6.493000000     1.514000000    -3.391000000
H    -5.671000000     1.035000000    -3.493000000
H    -7.159000000     0.923000000    -3.745000000
O     4.518000000    -4.930000000    -2.832000000
H     4.638000000    -3.998000000    -3.017000000
H     3.702000000    -4.971000000    -2.333000000
O    -0.467000000    -4.843000000    -2.425000000
H     0.121000000    -4.088000000    -2.455000000
H     0.096000000    -5.592000000    -2.621000000
O    -3.852000000    -0.076000000     6.860000000
H    -3.794000000    -0.039000000     5.906000000
H    -4.767000000    -0.299000000     7.036000000
O     1.034000000    -0.755000000     4.397000000
H     1.531000000    -1.105000000     3.658000000
H     1.507000000    -1.062000000     5.171000000
O    -3.717000000     0.424000000    -3.304000000
H    -3.906000000    -0.411000000    -3.733000000
H    -3.674000000     0.210000000    -2.372000000
O     0.499000000    -4.772000000     3.995000000
H     1.269000000    -4.259000000     3.749000000
H    -0.224000000    -4.145000000     3.972000000
O    -1.660000000     6.336000000     2.435000000
H    -1.957000000     5.496000000     2.087000000
H    -1.968000000     6.982000000     1.800000000
