161
-3053.43853
C    -0.534000000    -1.289000000    -0.427000000
H    -1.116000000    -2.059000000    -0.926000000
C     0.393000000    -0.515000000    -1.165000000
H     0.657000000    -0.750000000    -2.194000000
C     0.913000000     0.656000000    -0.566000000
C     1.865000000     1.510000000    -1.423000000
H     2.645000000     1.962000000    -0.808000000
H     2.266000000     0.940000000    -2.264000000
H     1.343000000     2.380000000    -1.828000000
C     0.417000000     1.047000000     0.680000000
H     0.688000000     2.050000000     0.999000000
C    -0.467000000     0.245000000     1.430000000
H    -0.844000000     0.551000000     2.402000000
C    -0.977000000    -0.953000000     0.909000000
C    -2.047000000    -1.771000000     1.591000000
O    -2.526000000    -1.414000000     2.667000000
O    -2.678000000    -2.582000000     0.923000000
O    -4.354000000    -1.446000000    -0.801000000
H    -3.709000000    -2.020000000    -0.387000000
H    -4.824000000    -1.048000000    -0.068000000
O     1.308000000    -3.605000000    -5.999000000
H     0.630000000    -3.720000000    -6.664000000
H     0.904000000    -3.913000000    -5.188000000
O     5.995000000    -0.578000000    -1.463000000
H     6.675000000    -1.054000000    -1.940000000
H     5.241000000    -0.582000000    -2.053000000
O     2.344000000     6.380000000     0.487000000
H     2.829000000     6.179000000    -0.313000000
H     1.434000000     6.171000000     0.274000000
O     6.913000000     2.637000000     1.017000000
H     7.617000000     3.204000000     1.330000000
H     6.133000000     3.191000000     1.034000000
O     2.155000000    -0.401000000     3.929000000
H     1.352000000    -0.910000000     3.818000000
H     2.771000000    -1.011000000     4.334000000
O    -1.461000000     3.802000000     0.757000000
H    -0.821000000     4.512000000     0.818000000
H    -1.512000000     3.449000000     1.645000000
O    -2.045000000    -4.890000000     4.380000000
H    -2.878000000    -4.940000000     3.913000000
H    -1.401000000    -5.230000000     3.758000000
O    -3.634000000    -4.478000000     2.340000000
H    -4.574000000    -4.456000000     2.161000000
H    -3.267000000    -3.795000000     1.777000000
O    -6.098000000    -0.270000000     0.892000000
H    -5.505000000    -0.315000000     1.642000000
H    -6.105000000     0.655000000     0.647000000
O    -1.395000000    -6.914000000    -1.926000000
H    -2.212000000    -6.639000000    -1.509000000
H    -0.773000000    -6.217000000    -1.718000000
O    -6.321000000    -3.343000000     3.170000000
H    -6.732000000    -4.090000000     3.604000000
H    -6.615000000    -3.402000000     2.261000000
O    -1.132000000    -4.724000000     0.278000000
H    -1.743000000    -4.037000000     0.541000000
H    -0.298000000    -4.467000000     0.673000000
O    -1.295000000    -7.358000000     1.913000000
H    -0.472000000    -7.783000000     1.667000000
H    -1.326000000    -6.567000000     1.375000000
O    -0.256000000     6.026000000     0.324000000
H    -0.842000000     6.439000000     0.959000000
H    -0.352000000     6.554000000    -0.469000000
O     4.945000000     3.378000000    -2.962000000
H     4.427000000     3.190000000    -2.179000000
H     4.335000000     3.256000000    -3.689000000
O     4.354000000     3.443000000     1.411000000
H     3.939000000     2.668000000     1.790000000
H     4.065000000     4.166000000     1.968000000
O    -5.897000000     2.599000000     3.452000000
H    -6.656000000     2.376000000     3.992000000
H    -5.574000000     1.757000000     3.133000000
O    -0.453000000    -4.518000000    -3.835000000
H    -1.336000000    -4.221000000    -3.614000000
H    -0.566000000    -5.434000000    -4.091000000
O     1.150000000     1.450000000    -4.729000000
H     1.399000000     0.533000000    -4.847000000
H     0.200000000     1.426000000    -4.613000000
O     2.253000000    -1.404000000    -4.970000000
H     2.359000000    -1.590000000    -4.037000000
H     1.860000000    -2.200000000    -5.330000000
O    -2.357000000     1.966000000    -0.986000000
H    -2.322000000     2.543000000    -0.223000000
H    -1.483000000     1.578000000    -1.032000000
O     0.575000000    -2.853000000     4.721000000
H     0.458000000    -3.768000000     4.977000000
H     1.216000000    -2.511000000     5.345000000
O    -3.422000000     1.526000000     2.241000000
H    -3.278000000     0.607000000     2.467000000
H    -2.750000000     2.001000000     2.730000000
O    -2.559000000     2.043000000     5.984000000
H    -3.368000000     1.538000000     5.908000000
H    -1.952000000     1.457000000     6.436000000
O    -7.267000000    -2.778000000     0.442000000
H    -7.499000000    -2.858000000    -0.483000000
H    -6.775000000    -1.960000000     0.497000000
O    -5.222000000     0.266000000     6.181000000
H    -5.195000000    -0.012000000     5.265000000
H    -6.117000000     0.577000000     6.311000000
O    -2.456000000    -1.980000000    -5.007000000
H    -3.322000000    -1.749000000    -4.671000000
H    -2.545000000    -2.889000000    -5.294000000
O     3.256000000     1.864000000     3.170000000
H     4.096000000     1.752000000     3.614000000
H     2.789000000     1.044000000     3.332000000
O     5.779000000     0.069000000     1.174000000
H     6.035000000     0.990000000     1.227000000
H     5.844000000    -0.144000000     0.243000000
O    -0.939000000     0.122000000     7.244000000
H    -0.838000000    -0.444000000     8.010000000
H    -1.334000000    -0.443000000     6.580000000
O    -1.473000000     3.202000000     3.760000000
H    -1.751000000     2.815000000     4.591000000
H    -0.631000000     3.611000000     3.956000000
O    -3.555000000    -4.760000000    -3.466000000
H    -4.166000000    -4.987000000    -4.166000000
H    -4.093000000    -4.309000000    -2.815000000
O     3.594000000     2.836000000    -5.221000000
H     4.019000000     2.712000000    -6.069000000
H     2.767000000     2.359000000    -5.296000000
O     1.223000000    -4.167000000     1.637000000
H     2.078000000    -3.740000000     1.689000000
H     0.956000000    -4.279000000     2.549000000
O    -4.489000000    -0.718000000    -3.497000000
H    -4.034000000    -0.824000000    -2.661000000
H    -5.418000000    -0.766000000    -3.271000000
O     0.609000000     4.002000000    -6.918000000
H     0.889000000     3.330000000    -7.539000000
H     1.001000000     3.737000000    -6.086000000
O     3.445000000    -2.131000000    -2.243000000
H     3.006000000    -1.604000000    -1.575000000
H     2.866000000    -2.881000000    -2.375000000
O    -5.758000000    -3.624000000    -2.150000000
H    -6.598000000    -3.339000000    -2.509000000
H    -5.361000000    -2.824000000    -1.807000000
O     3.428000000    -1.536000000     1.124000000
H     4.230000000    -1.014000000     1.162000000
H     2.739000000    -0.939000000     1.415000000
O    -1.411000000     0.673000000    -4.931000000
H    -2.026000000     1.084000000    -4.323000000
H    -1.607000000    -0.262000000    -4.876000000
O     2.130000000    -4.174000000    -3.237000000
H     2.748000000    -4.840000000    -2.934000000
H     1.319000000    -4.655000000    -3.399000000
O     1.487000000     3.207000000     4.708000000
H     1.909000000     4.066000000     4.705000000
H     1.916000000     2.726000000     4.000000000
O    -5.269000000    -3.387000000     6.411000000
H    -5.430000000    -2.738000000     5.726000000
H    -6.127000000    -3.778000000     6.577000000
O    -3.384000000    -6.401000000    -0.117000000
H    -2.965000000    -5.675000000     0.345000000
H    -4.241000000    -6.488000000     0.301000000
O    -4.939000000     2.643000000     0.072000000
H    -4.462000000     1.926000000    -0.347000000
H    -4.575000000     2.689000000     0.956000000
O    -5.015000000    -0.902000000     3.623000000
H    -5.389000000    -1.751000000     3.386000000
H    -4.091000000    -0.973000000     3.383000000
O    -2.089000000    -1.444000000     5.448000000
H    -2.710000000    -1.391000000     4.722000000
H    -1.367000000    -1.973000000     5.108000000
