161
-3081.41940
C     0.442000000    -0.428000000     1.371000000
H     0.613000000    -0.859000000     2.354000000
C    -0.906000000    -0.451000000     0.844000000
H    -1.668000000    -0.819000000     1.526000000
C    -1.176000000     0.053000000    -0.481000000
C    -2.485000000    -0.137000000    -1.096000000
H    -2.995000000     0.785000000    -1.383000000
H    -2.413000000    -0.674000000    -2.043000000
H    -3.220000000    -0.580000000    -0.421000000
C    -0.095000000     0.465000000    -1.181000000
H    -0.312000000     0.838000000    -2.178000000
C     1.181000000     0.528000000    -0.631000000
H     1.979000000     0.846000000    -1.298000000
C     1.426000000     0.133000000     0.635000000
C     2.860000000     0.052000000     1.168000000
O     3.788000000     0.330000000     0.449000000
O     2.985000000    -0.074000000     2.369000000
O     6.321000000     3.774000000    -0.639000000
H     6.747000000     3.128000000    -0.077000000
H     6.169000000     4.527000000    -0.067000000
O    -0.079000000    -2.469000000     4.828000000
H    -0.863000000    -1.976000000     4.588000000
H     0.634000000    -1.834000000     4.757000000
O    -3.887000000     4.131000000     0.561000000
H    -4.310000000     4.903000000     0.185000000
H    -3.200000000     3.905000000    -0.066000000
O    -6.284000000    -1.027000000    -1.980000000
H    -7.045000000    -0.917000000    -2.550000000
H    -5.637000000    -1.470000000    -2.528000000
O    -5.888000000    -0.253000000     0.526000000
H    -5.894000000     0.685000000     0.336000000
H    -5.813000000    -0.671000000    -0.331000000
O     1.408000000    -1.267000000    -3.742000000
H     2.058000000    -1.311000000    -3.041000000
H     1.519000000    -0.394000000    -4.118000000
O    -5.092000000    -2.784000000    -3.853000000
H    -4.147000000    -2.918000000    -3.780000000
H    -5.199000000    -2.252000000    -4.641000000
O     3.960000000     5.668000000     1.145000000
H     3.691000000     5.763000000     2.059000000
H     3.672000000     4.788000000     0.901000000
O     2.091000000     4.571000000    -0.892000000
H     1.929000000     4.883000000    -1.782000000
H     2.854000000     3.999000000    -0.974000000
O     2.270000000    -0.421000000     4.745000000
H     2.496000000    -0.343000000     3.818000000
H     1.829000000     0.402000000     4.954000000
O    -4.615000000    -3.339000000     1.060000000
H    -4.960000000    -2.453000000     0.952000000
H    -5.324000000    -3.911000000     0.767000000
O    -5.904000000     2.482000000     0.102000000
H    -6.762000000     2.900000000     0.179000000
H    -5.304000000     3.087000000     0.538000000
O     2.613000000     1.689000000    -3.781000000
H     3.186000000     1.978000000    -3.071000000
H     2.426000000     2.486000000    -4.277000000
O     7.169000000     2.770000000     1.954000000
H     7.506000000     1.878000000     2.038000000
H     6.536000000     2.855000000     2.667000000
O     3.840000000    -1.240000000    -1.911000000
H     4.465000000    -1.900000000    -1.612000000
H     3.768000000    -0.629000000    -1.178000000
O     2.286000000    -5.085000000     3.066000000
H     3.049000000    -5.622000000     2.853000000
H     2.252000000    -4.429000000     2.371000000
O     1.384000000    -3.653000000    -0.431000000
H     2.064000000    -3.413000000     0.198000000
H     1.854000000    -4.107000000    -1.130000000
O    -1.272000000    -0.237000000    -4.468000000
H    -0.544000000    -0.592000000    -3.958000000
H    -0.894000000    -0.050000000    -5.327000000
O    -4.419000000    -0.395000000    -5.996000000
H    -3.953000000    -0.647000000    -6.793000000
H    -4.143000000     0.506000000    -5.832000000
O    -3.136000000    -5.632000000     0.295000000
H    -2.809000000    -4.734000000     0.256000000
H    -4.085000000    -5.546000000     0.201000000
O    -0.027000000    -3.472000000    -2.914000000
H     0.640000000    -2.817000000    -3.118000000
H    -0.338000000    -3.234000000    -2.040000000
O    -2.331000000     4.017000000    -1.543000000
H    -2.316000000     3.743000000    -2.460000000
H    -1.541000000     3.633000000    -1.164000000
O    -1.340000000    -3.417000000     0.683000000
H    -0.821000000    -2.802000000     0.164000000
H    -0.758000000    -3.678000000     1.397000000
O    -4.003000000     1.986000000     4.062000000
H    -4.175000000     1.198000000     3.547000000
H    -4.850000000     2.429000000     4.113000000
O    -2.939000000     2.328000000    -4.227000000
H    -3.676000000     2.366000000    -3.618000000
H    -2.472000000     1.527000000    -3.988000000
O     6.904000000    -1.472000000     5.752000000
H     6.299000000    -1.527000000     5.012000000
H     7.557000000    -0.827000000     5.479000000
O     3.483000000     2.745000000     2.649000000
H     2.631000000     3.174000000     2.574000000
H     3.380000000     1.921000000     2.174000000
O     3.803000000     2.575000000    -1.300000000
H     4.663000000     2.991000000    -1.239000000
H     3.859000000     1.821000000    -0.713000000
O    -1.977000000    -0.542000000     4.316000000
H    -2.547000000    -0.533000000     3.548000000
H    -1.670000000     0.361000000     4.397000000
O     8.922000000    -1.226000000     1.101000000
H     9.230000000    -1.654000000     0.303000000
H     8.176000000    -0.697000000     0.816000000
O     4.494000000    -0.237000000    -4.691000000
H     3.861000000     0.400000000    -4.359000000
H     4.424000000    -0.979000000    -4.091000000
O     2.663000000    -1.889000000     6.847000000
H     2.383000000    -1.554000000     5.995000000
H     3.480000000    -1.424000000     7.030000000
O     3.252000000    -2.804000000     1.565000000
H     3.305000000    -2.154000000     2.265000000
H     4.151000000    -2.890000000     1.249000000
O    -0.017000000     3.282000000    -0.075000000
H     0.652000000     3.956000000    -0.197000000
H     0.403000000     2.472000000    -0.365000000
O     6.605000000     0.325000000    -2.355000000
H     6.023000000     0.816000000    -2.935000000
H     6.918000000    -0.404000000    -2.891000000
O    -2.382000000    -3.081000000    -4.239000000
H    -1.492000000    -3.247000000    -3.927000000
H    -2.264000000    -2.536000000    -5.017000000
O     6.005000000    -3.141000000     0.432000000
H     6.568000000    -2.404000000     0.671000000
H     6.167000000    -3.273000000    -0.502000000
O    -3.571000000    -1.537000000     6.319000000
H    -3.181000000    -2.404000000     6.214000000
H    -3.114000000    -0.989000000     5.681000000
O     5.446000000    -1.065000000     3.415000000
H     6.010000000    -0.910000000     2.657000000
H     4.574000000    -0.801000000     3.122000000
O     5.633000000     1.827000000     4.061000000
H     4.998000000     2.234000000     3.472000000
H     5.198000000     1.033000000     4.372000000
O     0.887000000     3.644000000     2.514000000
H     1.087000000     4.561000000     2.324000000
H     0.273000000     3.386000000     1.827000000
O    -3.016000000    -3.159000000     3.284000000
H    -3.934000000    -3.110000000     3.020000000
H    -2.549000000    -3.404000000     2.485000000
O    -5.297000000     2.199000000    -2.722000000
H    -5.305000000     2.289000000    -1.769000000
H    -6.221000000     2.212000000    -2.972000000
O     6.325000000    -0.014000000     0.420000000
H     5.383000000    -0.034000000     0.588000000
H     6.401000000     0.281000000    -0.487000000
O    -0.258000000    -4.553000000     3.009000000
H    -0.400000000    -3.861000000     3.654000000
H     0.691000000    -4.672000000     2.988000000
O     3.004000000     3.472000000     5.723000000
H     2.225000000     3.159000000     5.264000000
H     2.794000000     3.368000000     6.651000000
O    -4.257000000    -0.344000000     2.647000000
H    -4.819000000    -1.094000000     2.841000000
H    -4.525000000    -0.064000000     1.771000000
O     0.695000000     1.830000000     4.841000000
H     0.751000000     2.239000000     3.977000000
H    -0.180000000     2.056000000     5.156000000
