161
-3055.56140
C     0.931000000    -0.962000000     0.680000000
H     1.478000000    -1.626000000     1.345000000
C    -0.454000000    -1.022000000     0.697000000
H    -0.977000000    -1.786000000     1.267000000
C    -1.187000000    -0.125000000     0.016000000
C    -2.676000000    -0.087000000     0.192000000
H    -3.031000000    -1.071000000     0.505000000
H    -2.943000000     0.731000000     0.865000000
H    -3.037000000     0.141000000    -0.813000000
C    -0.595000000     0.849000000    -0.780000000
H    -1.245000000     1.463000000    -1.398000000
C     0.721000000     0.950000000    -0.805000000
H     1.109000000     1.727000000    -1.459000000
C     1.546000000     0.082000000    -0.102000000
C     3.035000000     0.253000000    -0.050000000
O     3.640000000     0.947000000    -0.889000000
O     3.690000000    -0.471000000     0.734000000
O     6.115000000    -1.202000000    -3.203000000
H     5.523000000    -0.661000000    -3.726000000
H     6.298000000    -1.961000000    -3.757000000
O    -1.532000000    -5.281000000     1.081000000
H    -1.894000000    -4.811000000     0.330000000
H    -1.316000000    -4.595000000     1.712000000
O     6.029000000     5.724000000     0.122000000
H     5.418000000     5.262000000    -0.451000000
H     6.228000000     5.097000000     0.816000000
O     5.623000000     4.286000000     3.079000000
H     5.200000000     3.457000000     2.855000000
H     6.393000000     4.033000000     3.588000000
O     1.624000000    -3.887000000     2.903000000
H     1.559000000    -4.179000000     1.994000000
H     0.718000000    -3.733000000     3.170000000
O    -4.365000000     3.032000000    -1.667000000
H    -4.399000000     3.854000000    -2.157000000
H    -3.970000000     2.407000000    -2.275000000
O    -1.512000000    -1.030000000    -3.496000000
H    -1.030000000    -1.643000000    -2.941000000
H    -2.212000000    -1.556000000    -3.883000000
O    -5.312000000    -2.710000000     2.626000000
H    -5.857000000    -1.924000000     2.588000000
H    -4.667000000    -2.522000000     3.308000000
O     0.678000000     1.703000000    -5.138000000
H     1.241000000     2.455000000    -4.955000000
H     1.238000000     1.098000000    -5.625000000
O     2.938000000     4.435000000     1.119000000
H     3.693000000     3.849000000     1.161000000
H     2.346000000     4.112000000     1.798000000
O     3.413000000    -1.537000000     3.135000000
H     3.487000000    -1.133000000     2.271000000
H     2.966000000    -2.368000000     2.974000000
O    -5.936000000     0.146000000    -3.918000000
H    -6.866000000     0.198000000    -3.701000000
H    -5.907000000     0.226000000    -4.871000000
O     0.426000000    -0.173000000     6.101000000
H     0.009000000    -0.712000000     5.429000000
H     1.140000000    -0.716000000     6.435000000
O    -4.302000000    -1.260000000     4.891000000
H    -4.754000000    -2.038000000     5.218000000
H    -4.599000000    -0.552000000     5.464000000
O     6.207000000     0.354000000    -1.141000000
H     6.256000000    -0.369000000    -1.767000000
H     5.271000000     0.538000000    -1.062000000
O     2.579000000    -3.344000000    -3.354000000
H     3.296000000    -3.589000000    -3.939000000
H     2.398000000    -2.428000000    -3.567000000
O     7.926000000     0.792000000     3.276000000
H     7.862000000     1.025000000     2.350000000
H     8.007000000     1.631000000     3.729000000
O    -1.113000000     5.368000000    -4.938000000
H    -1.115000000     4.630000000    -4.328000000
H    -0.409000000     5.936000000    -4.626000000
O    -1.355000000     3.109000000    -3.464000000
H    -0.590000000     2.615000000    -3.758000000
H    -2.080000000     2.486000000    -3.525000000
O    -4.140000000     3.306000000     1.175000000
H    -4.394000000     3.065000000     0.284000000
H    -4.755000000     2.834000000     1.735000000
O     1.661000000    -0.933000000    -3.832000000
H     0.788000000    -0.577000000    -3.668000000
H     2.243000000    -0.175000000    -3.781000000
O     3.657000000     0.882000000     4.746000000
H     3.625000000    -0.037000000     4.482000000
H     4.096000000     1.325000000     4.019000000
O     4.272000000     3.532000000    -1.128000000
H     3.503000000     4.068000000    -1.324000000
H     3.960000000     2.630000000    -1.203000000
O    -1.296000000     4.621000000    -1.137000000
H    -0.663000000     5.037000000    -1.723000000
H    -1.747000000     3.981000000    -1.688000000
O     2.475000000    -5.548000000     0.289000000
H     1.786000000    -5.595000000    -0.374000000
H     3.101000000    -4.915000000    -0.061000000
O    -1.376000000     5.468000000     2.009000000
H    -1.375000000     4.864000000     2.752000000
H    -1.220000000     4.910000000     1.247000000
O    -6.924000000     2.513000000     1.821000000
H    -7.111000000     2.152000000     0.955000000
H    -7.647000000     3.117000000     1.990000000
O    -2.094000000    -4.000000000    -1.242000000
H    -1.324000000    -3.604000000    -1.650000000
H    -2.825000000    -3.733000000    -1.800000000
O     1.995000000     3.705000000    -3.958000000
H     1.756000000     4.085000000    -3.112000000
H     2.253000000     4.455000000    -4.493000000
O     6.386000000     2.954000000    -2.613000000
H     5.614000000     3.246000000    -2.128000000
H     6.433000000     2.013000000    -2.444000000
O    -3.443000000     1.209000000    -3.408000000
H    -4.296000000     0.808000000    -3.575000000
H    -2.829000000     0.474000000    -3.401000000
O     1.261000000     3.495000000     2.964000000
H     0.558000000     2.953000000     2.604000000
H     1.397000000     3.153000000     3.848000000
O     4.080000000     1.088000000    -3.505000000
H     3.853000000     1.985000000    -3.752000000
H     3.993000000     1.074000000    -2.552000000
O     8.193000000     1.664000000     0.457000000
H     7.507000000     1.306000000    -0.108000000
H     8.834000000     2.033000000    -0.149000000
O    -5.322000000    -4.738000000     0.993000000
H    -5.695000000    -4.324000000     0.215000000
H    -5.336000000    -4.050000000     1.659000000
O     6.754000000    -2.667000000     3.454000000
H     6.141000000    -2.317000000     2.807000000
H     7.618000000    -2.427000000     3.119000000
O     6.001000000    -2.571000000     0.233000000
H     5.447000000    -1.799000000     0.347000000
H     6.887000000    -2.220000000     0.148000000
O    -1.278000000     2.734000000     1.503000000
H    -2.228000000     2.834000000     1.451000000
H    -1.046000000     2.235000000     0.720000000
O     1.821000000     4.994000000    -1.340000000
H     1.771000000     4.600000000    -0.469000000
H     1.624000000     5.920000000    -1.196000000
O     5.165000000     1.383000000     2.354000000
H     5.966000000     0.914000000     2.590000000
H     4.685000000     0.771000000     1.796000000
O     0.247000000    -2.810000000    -2.024000000
H     0.517000000    -2.411000000    -1.197000000
H     1.069000000    -3.001000000    -2.477000000
O    -7.135000000    -0.693000000     2.713000000
H    -7.190000000     0.037000000     3.330000000
H    -7.210000000    -0.283000000     1.851000000
O     4.259000000    -4.150000000    -1.179000000
H     4.946000000    -3.836000000    -0.592000000
H     3.998000000    -3.376000000    -1.678000000
O    -3.787000000    -2.592000000    -3.593000000
H    -4.678000000    -2.274000000    -3.448000000
H    -3.868000000    -3.205000000    -4.324000000
O    -1.426000000    -1.167000000     4.087000000
H    -2.307000000    -0.942000000     4.385000000
H    -1.296000000    -0.636000000     3.301000000
O    -6.965000000     2.262000000    -0.934000000
H    -6.070000000     2.318000000    -1.267000000
H    -7.296000000     3.159000000    -0.984000000
O    -4.141000000     5.330000000     3.089000000
H    -4.221000000     4.555000000     2.533000000
H    -3.548000000     5.062000000     3.790000000
O    -1.168000000    -3.911000000     3.341000000
H    -1.197000000    -3.019000000     3.689000000
H    -1.130000000    -4.469000000     4.117000000
