161
-3037.76244
C     0.814000000    -0.465000000     1.142000000
H     1.355000000    -0.788000000     2.027000000
C    -0.552000000    -0.500000000     1.092000000
H    -1.217000000    -0.829000000     1.886000000
C    -1.199000000    -0.003000000    -0.016000000
C    -2.700000000    -0.122000000    -0.172000000
H    -3.103000000    -0.338000000    -1.163000000
H    -3.052000000    -1.023000000     0.335000000
H    -3.306000000     0.679000000     0.257000000
C    -0.465000000     0.492000000    -1.084000000
H    -0.967000000     0.949000000    -1.933000000
C     0.936000000     0.518000000    -1.052000000
H     1.495000000     1.039000000    -1.825000000
C     1.584000000     0.034000000     0.080000000
C     3.062000000     0.106000000     0.132000000
O     3.656000000     0.414000000    -0.871000000
O     3.667000000    -0.170000000     1.172000000
O    -3.898000000    -5.284000000    -0.022000000
H    -3.970000000    -5.821000000    -0.811000000
H    -4.612000000    -4.651000000    -0.096000000
O     5.780000000     5.478000000     0.116000000
H     5.269000000     4.725000000    -0.180000000
H     6.301000000     5.141000000     0.845000000
O     5.909000000     2.646000000     3.365000000
H     5.748000000     1.763000000     3.031000000
H     6.711000000     2.564000000     3.882000000
O    -1.286000000    -4.057000000     3.918000000
H    -1.663000000    -4.092000000     3.039000000
H    -1.769000000    -3.356000000     4.357000000
O    -2.973000000     3.184000000    -1.880000000
H    -3.721000000     2.759000000    -1.460000000
H    -2.741000000     2.600000000    -2.603000000
O    -3.297000000    -0.387000000    -3.966000000
H    -2.499000000     0.104000000    -4.161000000
H    -3.098000000    -1.283000000    -4.237000000
O    -4.654000000    -1.414000000     4.212000000
H    -5.258000000    -1.238000000     3.490000000
H    -5.160000000    -1.217000000     5.000000000
O    -1.018000000     0.902000000    -4.562000000
H    -0.332000000     1.508000000    -4.282000000
H    -0.732000000     0.598000000    -5.424000000
O     3.105000000    -1.199000000     3.745000000
H     3.185000000    -0.606000000     2.998000000
H     3.094000000    -2.074000000     3.357000000
O     7.186000000     2.238000000    -2.745000000
H     7.388000000     1.788000000    -1.925000000
H     6.999000000     3.140000000    -2.485000000
O     4.968000000     1.299000000    -6.085000000
H     4.125000000     1.608000000    -6.419000000
H     5.026000000     1.666000000    -5.203000000
O     0.536000000    -0.521000000     6.424000000
H     0.453000000    -1.428000000     6.131000000
H     0.291000000    -0.545000000     7.349000000
O     0.782000000     0.119000000    -6.348000000
H     1.628000000     0.267000000    -6.769000000
H     0.403000000    -0.619000000    -6.826000000
O     5.661000000    -2.179000000    -2.862000000
H     6.147000000    -1.662000000    -3.505000000
H     4.812000000    -1.743000000    -2.796000000
O    -1.490000000     3.951000000    -5.201000000
H    -0.960000000     3.873000000    -4.407000000
H    -2.365000000     3.668000000    -4.933000000
O     3.924000000    -0.523000000     6.621000000
H     3.385000000     0.030000000     6.055000000
H     3.573000000    -1.406000000     6.498000000
O    -2.379000000     3.957000000     0.632000000
H    -2.390000000     3.510000000    -0.214000000
H    -2.003000000     3.316000000     1.236000000
O     2.910000000    -3.015000000    -5.215000000
H     3.711000000    -2.768000000    -5.678000000
H     2.892000000    -2.444000000    -4.447000000
O    -0.464000000    -2.121000000    -4.616000000
H    -0.421000000    -1.225000000    -4.282000000
H     0.451000000    -2.383000000    -4.719000000
O     2.311000000     1.503000000     5.208000000
H     1.588000000     1.934000000     5.665000000
H     1.999000000     0.611000000     5.054000000
O     4.910000000     2.755000000    -0.209000000
H     5.681000000     2.271000000     0.089000000
H     4.239000000     2.084000000    -0.332000000
O    -3.012000000     5.920000000    -2.388000000
H    -3.049000000     5.921000000    -3.345000000
H    -3.328000000     5.052000000    -2.137000000
O    -1.430000000    -4.111000000     1.023000000
H    -2.244000000    -4.108000000     0.520000000
H    -0.750000000    -3.909000000     0.381000000
O    -4.489000000     6.035000000     0.387000000
H    -4.449000000     5.079000000     0.402000000
H    -3.619000000     6.315000000     0.672000000
O    -5.883000000     1.391000000     1.770000000
H    -5.572000000     1.768000000     0.947000000
H    -5.719000000     2.072000000     2.422000000
O    -3.573000000    -3.536000000    -3.786000000
H    -2.652000000    -3.678000000    -3.568000000
H    -3.801000000    -4.273000000    -4.353000000
O     0.599000000     3.017000000    -3.444000000
H     0.563000000     3.235000000    -2.513000000
H     1.420000000     3.403000000    -3.749000000
O     4.522000000     2.187000000    -3.537000000
H     3.999000000     2.677000000    -2.903000000
H     5.212000000     1.778000000    -3.013000000
O    -3.876000000     2.455000000    -4.607000000
H    -4.054000000     2.377000000    -5.544000000
H    -4.175000000     1.624000000    -4.237000000
O     1.001000000     3.313000000     3.202000000
H     0.069000000     3.202000000     3.018000000
H     1.356000000     2.423000000     3.188000000
O     3.351000000    -0.382000000    -3.386000000
H     3.525000000     0.373000000    -3.948000000
H     3.168000000    -0.002000000    -2.526000000
O     7.505000000    -0.554000000    -0.748000000
H     6.781000000    -1.102000000    -1.052000000
H     8.254000000    -0.833000000    -1.275000000
O    -6.983000000    -3.438000000     0.987000000
H    -6.759000000    -3.394000000     0.057000000
H    -7.155000000    -2.530000000     1.235000000
O     6.312000000    -1.309000000     4.951000000
H     6.053000000    -1.222000000     4.034000000
H     5.655000000    -0.807000000     5.434000000
O     4.150000000    -2.863000000     1.511000000
H     3.904000000    -1.948000000     1.379000000
H     5.100000000    -2.841000000     1.631000000
O    -1.376000000     2.191000000     2.281000000
H    -1.845000000     1.617000000     2.887000000
H    -1.029000000     1.601000000     1.612000000
O    -5.580000000    -3.349000000    -1.570000000
H    -4.812000000    -3.104000000    -2.086000000
H    -5.827000000    -4.212000000    -1.902000000
O     2.195000000     4.179000000    -1.627000000
H     2.205000000     4.103000000    -0.673000000
H     1.439000000     4.736000000    -1.815000000
O     6.033000000     0.151000000     1.921000000
H     6.406000000    -0.389000000     1.224000000
H     5.087000000     0.098000000     1.784000000
O     6.708000000    -2.842000000     2.044000000
H     7.392000000    -2.180000000     2.153000000
H     7.097000000    -3.494000000     1.462000000
O    -5.391000000     2.079000000    -1.139000000
H    -5.945000000     2.686000000    -1.631000000
H    -5.596000000     1.218000000    -1.504000000
O    -0.072000000    -3.185000000    -1.607000000
H    -0.250000000    -2.906000000    -2.506000000
H     0.425000000    -2.460000000    -1.226000000
O    -7.343000000    -0.785000000     1.456000000
H    -6.706000000    -0.095000000     1.644000000
H    -8.058000000    -0.334000000     1.006000000
O     8.694000000     1.851000000    -0.023000000
H     8.120000000     1.103000000    -0.186000000
H     9.429000000     1.487000000     0.470000000
O     2.221000000    -4.273000000     0.308000000
H     2.879000000    -3.769000000     0.786000000
H     2.657000000    -4.525000000    -0.506000000
O    -0.316000000     2.271000000     6.178000000
H    -0.242000000     1.387000000     5.819000000
H    -0.629000000     2.140000000     7.074000000
O    -2.355000000     0.303000000     4.341000000
H    -2.510000000     0.553000000     5.252000000
H    -3.036000000    -0.343000000     4.152000000
O    -5.688000000    -0.304000000    -2.238000000
H    -4.953000000    -0.405000000    -2.844000000
H    -5.835000000    -1.185000000    -1.892000000
