161
-3056.45834
C     1.238000000    -0.481000000     0.524000000
H     2.128000000    -0.877000000     1.006000000
C     0.029000000    -0.586000000     1.192000000
H    -0.075000000    -1.155000000     2.112000000
C    -1.089000000    -0.099000000     0.573000000
C    -2.420000000    -0.336000000     1.323000000
H    -2.195000000    -0.747000000     2.309000000
H    -2.897000000     0.637000000     1.455000000
H    -2.999000000    -1.056000000     0.741000000
C    -0.996000000     0.494000000    -0.689000000
H    -1.918000000     0.820000000    -1.162000000
C     0.261000000     0.769000000    -1.267000000
H     0.228000000     1.343000000    -2.190000000
C     1.435000000     0.187000000    -0.757000000
C     2.739000000     0.330000000    -1.510000000
O     2.774000000     0.875000000    -2.619000000
O     3.755000000    -0.122000000    -1.044000000
O     0.303000000    -1.289000000    -6.951000000
H     0.204000000    -0.840000000    -6.111000000
H     1.077000000    -1.841000000    -6.838000000
O     0.240000000    -0.758000000    -4.153000000
H     0.989000000    -0.434000000    -3.652000000
H    -0.427000000    -0.079000000    -4.053000000
O    -1.025000000     0.460000000     5.402000000
H    -1.169000000     0.938000000     4.585000000
H    -1.265000000     1.081000000     6.089000000
O    -0.773000000    -5.703000000     1.164000000
H    -0.306000000    -4.923000000     0.865000000
H    -1.589000000    -5.699000000     0.663000000
O    -4.139000000     0.814000000    -4.080000000
H    -4.321000000    -0.125000000    -4.128000000
H    -4.909000000     1.185000000    -3.648000000
O     4.066000000     2.703000000     1.011000000
H     4.742000000     3.343000000     1.233000000
H     3.906000000     2.840000000     0.077000000
O     6.917000000     2.181000000     2.417000000
H     7.666000000     1.605000000     2.568000000
H     6.157000000     1.601000000     2.453000000
O     4.874000000    -1.726000000     1.229000000
H     4.390000000    -2.528000000     1.422000000
H     4.528000000    -1.435000000     0.385000000
O    -5.319000000    -1.997000000     3.645000000
H    -5.270000000    -1.251000000     4.243000000
H    -4.437000000    -2.368000000     3.652000000
O     1.178000000    -3.230000000    -4.283000000
H     0.776000000    -3.830000000    -3.655000000
H     0.681000000    -2.417000000    -4.188000000
O    -2.325000000    -1.757000000     6.976000000
H    -1.554000000    -2.307000000     6.835000000
H    -2.274000000    -1.093000000     6.289000000
O    -3.391000000    -3.060000000    -0.769000000
H    -3.243000000    -3.986000000    -0.579000000
H    -2.522000000    -2.663000000    -0.718000000
O    -1.215000000     2.604000000     3.664000000
H    -0.354000000     2.769000000     3.279000000
H    -1.829000000     2.734000000     2.942000000
O     1.329000000     3.298000000    -6.885000000
H     1.204000000     2.793000000    -7.689000000
H     0.515000000     3.175000000    -6.396000000
O    -1.422000000     1.375000000    -4.643000000
H    -1.295000000     2.244000000    -5.023000000
H    -2.370000000     1.242000000    -4.663000000
O     4.292000000     0.147000000    -6.352000000
H     4.604000000    -0.474000000    -5.694000000
H     3.833000000     0.819000000    -5.849000000
O    -0.769000000     4.566000000    -3.740000000
H     0.083000000     4.726000000    -3.334000000
H    -1.170000000     5.432000000    -3.806000000
O     2.131000000    -2.902000000     4.727000000
H     2.471000000    -3.173000000     3.874000000
H     2.610000000    -3.440000000     5.358000000
O     1.464000000     5.113000000    -2.204000000
H     1.453000000     5.432000000    -1.302000000
H     2.216000000     4.521000000    -2.239000000
O    -0.713000000    -4.541000000     5.654000000
H    -0.838000000    -3.684000000     5.245000000
H    -0.815000000    -5.166000000     4.937000000
O    -2.848000000     3.161000000    -2.526000000
H    -2.894000000     2.407000000    -3.113000000
H    -2.076000000     3.645000000    -2.817000000
O    -5.988000000    -2.844000000    -1.396000000
H    -5.123000000    -2.843000000    -0.985000000
H    -6.577000000    -3.167000000    -0.714000000
O     3.420000000    -5.319000000    -0.327000000
H     2.635000000    -5.863000000    -0.382000000
H     3.280000000    -4.629000000    -0.975000000
O     7.357000000    -0.349000000     1.409000000
H     7.031000000    -0.851000000     2.156000000
H     6.615000000    -0.310000000     0.805000000
O    -3.634000000     3.243000000     0.536000000
H    -4.402000000     2.716000000     0.317000000
H    -3.278000000     3.510000000    -0.311000000
O     2.956000000    -2.788000000    -1.715000000
H     3.488000000    -1.998000000    -1.813000000
H     2.498000000    -2.873000000    -2.551000000
O    -6.309000000     1.836000000    -0.385000000
H    -6.193000000     2.378000000    -1.166000000
H    -6.596000000     2.450000000     0.291000000
O     3.425000000     2.123000000    -4.725000000
H     3.170000000     1.744000000    -3.883000000
H     2.641000000     2.579000000    -5.030000000
O    -5.632000000     2.874000000    -3.069000000
H    -4.822000000     3.111000000    -2.618000000
H    -5.778000000     3.587000000    -3.690000000
O    -0.574000000    -2.094000000     4.432000000
H     0.371000000    -2.122000000     4.284000000
H    -0.763000000    -1.170000000     4.599000000
O    -1.502000000     3.813000000    -6.130000000
H    -1.254000000     4.233000000    -5.307000000
H    -1.770000000     4.536000000    -6.697000000
O     3.651000000     3.608000000    -1.823000000
H     4.533000000     3.928000000    -2.013000000
H     3.695000000     2.667000000    -1.998000000
O    -2.354000000     4.053000000     5.447000000
H    -2.559000000     4.840000000     4.941000000
H    -1.955000000     3.458000000     4.812000000
O     5.605000000     3.807000000    -5.652000000
H     5.375000000     3.939000000    -6.572000000
H     4.957000000     3.179000000    -5.331000000
O    -2.890000000    -2.987000000     3.536000000
H    -2.833000000    -3.764000000     2.980000000
H    -1.995000000    -2.649000000     3.567000000
O     3.847000000    -3.285000000    -5.192000000
H     2.937000000    -3.297000000    -4.894000000
H     4.288000000    -2.685000000    -4.591000000
O     0.047000000    -3.591000000    -0.323000000
H     0.600000000    -2.810000000    -0.310000000
H    -0.016000000    -3.826000000    -1.248000000
O     1.627000000     2.299000000     3.058000000
H     2.429000000     2.361000000     2.540000000
H     1.477000000     1.358000000     3.155000000
O     4.875000000    -1.261000000    -3.698000000
H     5.823000000    -1.207000000    -3.583000000
H     4.520000000    -0.651000000    -3.052000000
O     7.402000000    -3.100000000    -0.089000000
H     6.845000000    -2.672000000     0.561000000
H     7.000000000    -3.958000000    -0.221000000
O    -4.654000000     2.694000000     3.636000000
H    -4.618000000     3.074000000     2.758000000
H    -5.403000000     3.122000000     4.051000000
O    -4.345000000     0.222000000     4.830000000
H    -4.707000000     0.577000000     5.642000000
H    -3.889000000     0.962000000     4.428000000
O     6.325000000     0.481000000    -1.084000000
H     6.656000000     0.985000000    -1.827000000
H     5.373000000     0.519000000    -1.173000000
O    -7.253000000    -3.045000000     1.758000000
H    -7.470000000    -3.862000000     2.208000000
H    -6.595000000    -2.631000000     2.317000000
O     2.572000000    -0.401000000     4.716000000
H     3.193000000    -0.329000000     3.991000000
H     2.278000000    -1.311000000     4.690000000
O     3.413000000    -4.004000000     2.175000000
H     3.232000000    -4.586000000     1.437000000
H     3.746000000    -4.583000000     2.861000000
O     4.230000000     0.456000000     2.789000000
H     4.445000000    -0.298000000     2.240000000
H     4.192000000     1.193000000     2.179000000
O     7.585000000    -1.297000000    -3.360000000
H     8.297000000    -0.902000000    -3.864000000
H     7.797000000    -1.096000000    -2.449000000
