161
-3064.64816
C     1.520000000    -0.036000000     0.131000000
H     2.601000000    -0.102000000     0.216000000
C     0.811000000    -0.408000000    -1.004000000
H     1.291000000    -0.787000000    -1.903000000
C    -0.563000000    -0.238000000    -1.097000000
C    -1.395000000    -0.717000000    -2.193000000
H    -1.353000000     0.061000000    -2.959000000
H    -1.042000000    -1.707000000    -2.487000000
H    -2.417000000    -0.891000000    -1.850000000
C    -1.239000000     0.238000000    -0.003000000
H    -2.314000000     0.374000000    -0.097000000
C    -0.581000000     0.608000000     1.176000000
H    -1.184000000     1.097000000     1.937000000
C     0.794000000     0.374000000     1.263000000
C     1.535000000     0.660000000     2.608000000
O     0.949000000     1.341000000     3.426000000
O     2.583000000     0.137000000     2.830000000
O    -0.173000000     1.475000000     7.513000000
H    -0.669000000     0.846000000     8.037000000
H    -0.523000000     1.380000000     6.628000000
O     2.917000000    -2.429000000     2.511000000
H     2.952000000    -1.473000000     2.486000000
H     2.990000000    -2.648000000     3.440000000
O    -6.067000000    -3.069000000    -4.045000000
H    -6.647000000    -3.334000000    -3.332000000
H    -5.563000000    -2.338000000    -3.686000000
O    -3.674000000     3.746000000    -0.659000000
H    -2.773000000     3.680000000    -0.343000000
H    -4.144000000     3.056000000    -0.190000000
O    -2.101000000     4.592000000    -3.903000000
H    -2.083000000     5.118000000    -3.103000000
H    -2.139000000     3.687000000    -3.593000000
O    -1.225000000     1.180000000     4.777000000
H    -1.951000000     1.487000000     4.234000000
H    -0.448000000     1.307000000     4.232000000
O     0.435000000     5.267000000     5.050000000
H     1.201000000     5.706000000     4.681000000
H     0.729000000     4.371000000     5.215000000
O    -3.026000000     3.762000000     3.177000000
H    -2.225000000     3.938000000     2.685000000
H    -3.339000000     4.627000000     3.443000000
O    -0.336000000     1.672000000    -6.847000000
H    -0.626000000     0.893000000    -7.321000000
H    -1.139000000     2.043000000    -6.482000000
O     6.660000000    -2.166000000     2.550000000
H     6.212000000    -1.393000000     2.892000000
H     6.333000000    -2.889000000     3.085000000
O     4.242000000    -3.522000000    -2.581000000
H     4.724000000    -3.084000000    -1.879000000
H     4.249000000    -4.447000000    -2.335000000
O     4.314000000     3.398000000     0.673000000
H     3.402000000     3.636000000     0.506000000
H     4.719000000     3.377000000    -0.195000000
O     2.655000000    -3.056000000    -4.628000000
H     3.348000000    -3.088000000    -3.970000000
H     2.686000000    -3.914000000    -5.051000000
O    -4.730000000     1.896000000     1.124000000
H    -5.115000000     2.448000000     1.805000000
H    -4.654000000     1.032000000     1.530000000
O     4.492000000    -0.969000000     7.639000000
H     4.053000000    -0.464000000     6.955000000
H     3.804000000    -1.527000000     8.003000000
O     0.371000000     3.587000000    -2.048000000
H    -0.226000000     3.885000000    -1.362000000
H    -0.047000000     2.803000000    -2.405000000
O     4.870000000     0.932000000     1.601000000
H     4.681000000     1.841000000     1.367000000
H     4.076000000     0.628000000     2.039000000
O    -3.029000000     1.811000000    -6.279000000
H    -3.591000000     2.264000000    -6.908000000
H    -3.625000000     1.534000000    -5.583000000
O    -2.041000000    -0.654000000    -7.719000000
H    -2.697000000    -0.135000000    -7.254000000
H    -2.181000000    -1.549000000    -7.412000000
O     5.709000000    -0.039000000     3.937000000
H     5.891000000     0.503000000     3.169000000
H     4.887000000     0.306000000     4.285000000
O     5.669000000    -0.519000000    -1.070000000
H     4.778000000    -0.267000000    -1.312000000
H     5.777000000    -0.188000000    -0.178000000
O    -6.555000000     0.740000000    -1.438000000
H    -7.449000000     0.493000000    -1.199000000
H    -6.169000000     1.059000000    -0.623000000
O    -1.466000000    -4.632000000    -4.825000000
H    -1.060000000    -3.778000000    -4.677000000
H    -2.397000000    -4.486000000    -4.659000000
O    -0.332000000    -2.354000000     6.345000000
H    -1.245000000    -2.131000000     6.525000000
H    -0.228000000    -2.197000000     5.406000000
O    -0.126000000     3.966000000     2.340000000
H     0.371000000     3.154000000     2.237000000
H     0.153000000     4.311000000     3.188000000
O     0.127000000    -3.829000000    -2.474000000
H     0.389000000    -3.286000000    -3.218000000
H     0.729000000    -4.573000000    -2.497000000
O    -5.051000000    -1.246000000    -2.325000000
H    -4.705000000    -1.898000000    -1.715000000
H    -5.480000000    -0.599000000    -1.765000000
O     3.813000000    -4.413000000     0.912000000
H     3.925000000    -5.170000000     1.487000000
H     3.492000000    -3.720000000     1.488000000
O     5.852000000     3.201000000    -1.619000000
H     5.665000000     2.416000000    -2.134000000
H     6.787000000     3.141000000    -1.422000000
O    -2.590000000    -0.842000000     6.547000000
H    -2.115000000    -0.210000000     6.007000000
H    -3.110000000    -0.303000000     7.143000000
O     1.562000000     2.802000000     5.717000000
H     1.551000000     2.333000000     4.883000000
H     0.930000000     2.334000000     6.263000000
O     1.006000000     0.397000000    -4.899000000
H     1.510000000     1.046000000    -4.407000000
H     0.464000000     0.916000000    -5.493000000
O    -1.190000000    -4.705000000     1.927000000
H    -1.356000000    -4.037000000     1.261000000
H    -0.815000000    -5.439000000     1.442000000
O     3.130000000     4.224000000     3.426000000
H     3.390000000     3.508000000     2.846000000
H     2.433000000     4.676000000     2.951000000
O     1.778000000     4.354000000     0.340000000
H     0.946000000     4.567000000     0.764000000
H     1.580000000     4.373000000    -0.596000000
O    -1.561000000    -3.197000000    -0.138000000
H    -0.875000000    -3.589000000    -0.678000000
H    -1.320000000    -2.273000000    -0.077000000
O    -3.883000000    -5.696000000    -2.299000000
H    -3.548000000    -5.020000000    -1.710000000
H    -3.974000000    -5.254000000    -3.143000000
O    -5.111000000    -0.787000000     1.443000000
H    -4.734000000    -1.404000000     0.815000000
H    -6.022000000    -1.066000000     1.535000000
O     3.144000000     0.640000000     5.536000000
H     2.606000000     1.344000000     5.899000000
H     2.679000000     0.364000000     4.747000000
O     0.093000000    -2.692000000     3.368000000
H     0.814000000    -2.513000000     2.764000000
H    -0.404000000    -3.393000000     2.947000000
O     0.152000000    -2.279000000    -4.740000000
H     0.224000000    -1.343000000    -4.551000000
H     1.056000000    -2.567000000    -4.871000000
O     5.138000000     0.920000000    -3.589000000
H     4.840000000     0.135000000    -4.049000000
H     5.293000000     1.560000000    -4.283000000
O    -4.218000000    -3.413000000    -0.401000000
H    -3.306000000    -3.316000000    -0.126000000
H    -4.598000000    -4.015000000     0.239000000
O    -2.378000000     2.252000000    -2.766000000
H    -3.010000000     2.424000000    -2.068000000
H    -2.812000000     1.613000000    -3.330000000
O     3.431000000    -0.510000000    -5.758000000
H     3.395000000    -1.466000000    -5.777000000
H     2.531000000    -0.240000000    -5.577000000
O    -4.675000000     1.232000000    -4.051000000
H    -4.690000000     0.309000000    -3.798000000
H    -5.585000000     1.517000000    -3.968000000
O    -4.699000000     2.828000000     5.416000000
H    -4.575000000     2.785000000     4.467000000
H    -4.792000000     3.762000000     5.603000000
O     2.028000000     2.605000000    -3.836000000
H     2.683000000     3.119000000    -4.309000000
H     1.573000000     3.244000000    -3.287000000
