161
-3020.47389
C     1.002000000    -1.078000000     0.204000000
H     1.642000000    -1.957000000     0.231000000
C     0.001000000    -1.105000000    -0.719000000
H    -0.124000000    -1.837000000    -1.513000000
C    -0.902000000    -0.077000000    -0.750000000
C    -2.026000000    -0.062000000    -1.785000000
H    -1.687000000    -0.099000000    -2.822000000
H    -2.690000000    -0.924000000    -1.693000000
H    -2.510000000     0.914000000    -1.709000000
C    -0.880000000     0.955000000     0.210000000
H    -1.696000000     1.673000000     0.230000000
C     0.171000000     1.045000000     1.066000000
H     0.189000000     1.937000000     1.687000000
C     1.217000000     0.007000000     1.028000000
C     2.406000000     0.139000000     1.951000000
O     2.578000000     1.166000000     2.534000000
O     3.308000000    -0.704000000     1.844000000
O     0.772000000     0.605000000     6.426000000
H    -0.034000000     0.532000000     5.916000000
H     1.450000000     0.795000000     5.777000000
O    -0.868000000     0.176000000    -5.358000000
H    -0.229000000     0.323000000    -6.055000000
H    -1.461000000    -0.487000000    -5.713000000
O    -1.273000000    -4.939000000     0.788000000
H    -0.975000000    -4.521000000     1.596000000
H    -2.072000000    -5.402000000     1.038000000
O     0.784000000     2.297000000    -4.052000000
H     0.448000000     3.108000000    -4.434000000
H     0.366000000     1.603000000    -4.561000000
O     3.123000000     1.486000000     5.091000000
H     3.882000000     0.924000000     5.242000000
H     2.884000000     1.325000000     4.178000000
O    -1.527000000    -1.561000000    -7.437000000
H    -1.672000000    -2.341000000    -6.902000000
H    -1.787000000    -1.824000000    -8.320000000
O     7.370000000    -2.741000000     3.179000000
H     6.541000000    -2.644000000     2.711000000
H     7.160000000    -3.305000000     3.923000000
O     3.528000000    -3.697000000     4.207000000
H     3.620000000    -3.469000000     3.282000000
H     4.369000000    -4.092000000     4.440000000
O     1.181000000     3.460000000     3.229000000
H     1.903000000     3.714000000     3.805000000
H     1.464000000     2.632000000     2.842000000
O     0.996000000     3.660000000    -0.522000000
H     0.592000000     2.842000000    -0.813000000
H     1.714000000     3.384000000     0.047000000
O     0.819000000    -2.572000000    -5.261000000
H     0.217000000    -1.856000000    -5.467000000
H     0.456000000    -2.969000000    -4.470000000
O     4.539000000    -4.084000000    -2.717000000
H     4.750000000    -3.412000000    -3.366000000
H     4.633000000    -4.911000000    -3.190000000
O     2.033000000    -5.941000000     0.755000000
H     2.769000000    -6.399000000     0.348000000
H     1.956000000    -6.336000000     1.624000000
O    -5.481000000    -4.314000000    -2.915000000
H    -4.623000000    -4.214000000    -3.326000000
H    -5.470000000    -3.697000000    -2.184000000
O     6.330000000     2.159000000     3.726000000
H     5.861000000     1.331000000     3.619000000
H     7.047000000     1.952000000     4.325000000
O     5.916000000     2.934000000     0.119000000
H     5.741000000     3.085000000    -0.810000000
H     6.606000000     2.271000000     0.128000000
O    -6.060000000    -1.638000000    -1.404000000
H    -6.376000000    -2.108000000    -0.633000000
H    -6.407000000    -0.752000000    -1.303000000
O     5.272000000    -0.022000000     0.127000000
H     4.949000000    -0.338000000    -0.717000000
H     4.554000000    -0.190000000     0.737000000
O    -6.084000000     2.981000000    -2.390000000
H    -6.337000000     2.740000000    -3.281000000
H    -5.246000000     3.434000000    -2.494000000
O     3.391000000     3.123000000     1.069000000
H     3.068000000     2.470000000     1.689000000
H     4.212000000     2.757000000     0.740000000
O     1.123000000     5.649000000    -2.499000000
H     0.779000000     5.123000000    -1.777000000
H     0.830000000     6.540000000    -2.308000000
O    -2.792000000     1.956000000    -4.286000000
H    -3.451000000     1.265000000    -4.209000000
H    -2.079000000     1.552000000    -4.780000000
O     4.424000000    -3.208000000     1.755000000
H     4.577000000    -3.774000000     0.999000000
H     4.345000000    -2.329000000     1.384000000
O    -4.785000000     0.395000000    -3.458000000
H    -5.554000000     0.299000000    -4.020000000
H    -4.681000000    -0.462000000    -3.045000000
O    -1.212000000     4.650000000     4.006000000
H    -1.553000000     5.158000000     3.270000000
H    -0.316000000     4.431000000     3.751000000
O     3.411000000     1.819000000    -3.453000000
H     2.478000000     1.961000000    -3.614000000
H     3.755000000     1.514000000    -4.292000000
O     7.990000000     0.532000000     0.188000000
H     8.290000000     0.621000000    -0.717000000
H     7.229000000    -0.046000000     0.132000000
O    -1.671000000     4.629000000    -0.171000000
H    -1.759000000     5.460000000     0.296000000
H    -0.820000000     4.288000000     0.106000000
O     3.223000000     5.893000000     1.986000000
H     3.610000000     5.017000000     1.988000000
H     2.404000000     5.791000000     1.501000000
O    -3.811000000    -3.439000000    -0.828000000
H    -3.712000000    -4.364000000    -0.601000000
H    -3.540000000    -3.388000000    -1.745000000
O    -1.372000000     3.237000000     6.302000000
H    -1.519000000     3.600000000     5.429000000
H    -1.689000000     2.336000000     6.244000000
O    -4.456000000    -0.702000000     0.524000000
H    -4.657000000    -1.358000000    -0.144000000
H    -3.501000000    -0.717000000     0.595000000
O     3.763000000    -0.770000000    -1.869000000
H     3.091000000    -1.413000000    -2.096000000
H     3.492000000     0.029000000    -2.322000000
O    -0.266000000    -3.951000000     2.996000000
H    -0.300000000    -4.724000000     3.560000000
H     0.079000000    -3.258000000     3.559000000
O     3.258000000     4.192000000     5.954000000
H     4.158000000     4.013000000     6.225000000
H     2.988000000     3.404000000     5.482000000
O     1.994000000    -3.909000000    -1.425000000
H     1.990000000    -4.316000000    -0.558000000
H     2.866000000    -4.095000000    -1.773000000
O    -2.929000000    -1.558000000     4.075000000
H    -2.925000000    -2.011000000     3.232000000
H    -3.679000000    -1.929000000     4.542000000
O    -4.681000000     1.426000000     2.235000000
H    -5.266000000     2.073000000     1.840000000
H    -4.638000000     0.718000000     1.592000000
O    -0.624000000    -4.412000000    -1.969000000
H    -0.874000000    -4.706000000    -1.093000000
H     0.222000000    -3.981000000    -1.845000000
O     5.072000000    -0.355000000     3.769000000
H     4.840000000    -1.250000000     4.018000000
H     4.506000000    -0.160000000     3.022000000
O    -2.403000000    -2.176000000     1.297000000
H    -1.460000000    -2.052000000     1.408000000
H    -2.482000000    -2.735000000     0.524000000
O    -2.699000000    -3.452000000    -3.490000000
H    -1.993000000    -3.851000000    -2.982000000
H    -2.589000000    -3.807000000    -4.372000000
O    -4.493000000     3.931000000    -5.204000000
H    -3.833000000     4.585000000    -5.435000000
H    -3.988000000     3.185000000    -4.881000000
O    -1.517000000     0.995000000     4.407000000
H    -1.311000000     1.472000000     3.603000000
H    -1.801000000     0.132000000     4.107000000
O     3.772000000    -2.064000000     6.531000000
H     2.829000000    -1.944000000     6.641000000
H     3.853000000    -2.606000000     5.746000000
O     5.518000000    -4.639000000    -0.297000000
H     5.056000000    -4.531000000    -1.128000000
H     6.309000000    -5.127000000    -0.524000000
O    -3.385000000     3.642000000    -2.264000000
H    -3.059000000     2.989000000    -2.884000000
H    -2.790000000     3.579000000    -1.517000000
O     6.209000000     4.457000000     2.469000000
H     6.361000000     3.712000000     3.051000000
H     6.319000000     4.099000000     1.588000000
