161
-3060.12083
C    -1.426000000    -0.325000000    -0.304000000
H    -2.467000000    -0.403000000    -0.606000000
C    -0.374000000    -0.290000000    -1.205000000
H    -0.547000000    -0.361000000    -2.276000000
C     0.913000000     0.026000000    -0.821000000
C     1.977000000     0.169000000    -1.882000000
H     2.947000000     0.249000000    -1.387000000
H     2.047000000    -0.542000000    -2.707000000
H     1.944000000     1.168000000    -2.322000000
C     1.183000000     0.198000000     0.532000000
H     2.224000000     0.351000000     0.804000000
C     0.129000000     0.092000000     1.452000000
H     0.357000000     0.091000000     2.515000000
C    -1.188000000    -0.185000000     1.100000000
C    -2.256000000    -0.139000000     2.084000000
O    -2.033000000     0.118000000     3.268000000
O    -3.435000000    -0.224000000     1.763000000
O    -5.355000000    -1.757000000    -2.170000000
H    -4.584000000    -1.362000000    -2.577000000
H    -5.851000000    -1.015000000    -1.824000000
O    -0.732000000    -3.738000000    -4.410000000
H    -0.770000000    -2.846000000    -4.755000000
H    -1.385000000    -3.752000000    -3.711000000
O     8.226000000    -0.293000000    -2.618000000
H     7.558000000     0.352000000    -2.383000000
H     8.598000000    -0.568000000    -1.780000000
O     0.219000000     3.151000000    -1.806000000
H     0.802000000     2.885000000    -1.095000000
H     0.775000000     3.664000000    -2.393000000
O     3.942000000     2.831000000    -2.294000000
H     3.579000000     2.841000000    -1.409000000
H     3.690000000     3.676000000    -2.666000000
O     2.470000000     1.760000000     3.289000000
H     2.850000000     1.790000000     4.167000000
H     2.943000000     1.054000000     2.848000000
O     1.759000000     2.690000000    -4.624000000
H     1.704000000     3.627000000    -4.438000000
H     2.293000000     2.335000000    -3.914000000
O    -4.056000000     4.090000000    -2.564000000
H    -3.608000000     3.307000000    -2.244000000
H    -3.976000000     4.721000000    -1.850000000
O    -1.768000000    -3.266000000     1.963000000
H    -0.947000000    -3.213000000     1.473000000
H    -2.450000000    -3.186000000     1.296000000
O    -3.698000000    -3.358000000     6.774000000
H    -4.363000000    -3.064000000     7.397000000
H    -3.672000000    -2.670000000     6.109000000
O     0.046000000    -3.567000000    -0.648000000
H    -0.572000000    -4.272000000    -0.456000000
H    -0.507000000    -2.815000000    -0.861000000
O    -3.743000000    -4.013000000     3.756000000
H    -3.944000000    -3.180000000     4.182000000
H    -2.900000000    -3.866000000     3.328000000
O     0.542000000     5.058000000     0.947000000
H     0.361000000     4.460000000     1.672000000
H     0.615000000     5.919000000     1.359000000
O    -6.471000000    -0.844000000     1.954000000
H    -5.582000000    -0.508000000     1.840000000
H    -6.892000000    -0.213000000     2.538000000
O    -3.577000000    -2.410000000     0.111000000
H    -4.428000000    -2.500000000    -0.318000000
H    -3.651000000    -1.604000000     0.622000000
O    -2.723000000    -3.695000000    -2.472000000
H    -3.063000000    -2.897000000    -2.067000000
H    -2.334000000    -4.185000000    -1.748000000
O     2.755000000     3.425000000     0.227000000
H     2.100000000     4.110000000     0.362000000
H     2.984000000     3.136000000     1.110000000
O     4.758000000     2.265000000    -5.377000000
H     5.030000000     3.162000000    -5.180000000
H     5.568000000     1.816000000    -5.618000000
O     1.222000000    -0.171000000    -6.101000000
H     1.543000000     0.726000000    -6.007000000
H     0.354000000    -0.159000000    -5.699000000
O     5.009000000    -0.761000000    -3.381000000
H     5.106000000    -0.144000000    -4.106000000
H     5.457000000    -0.340000000    -2.647000000
O     1.874000000    -4.113000000    -3.633000000
H     0.923000000    -4.070000000    -3.740000000
H     2.213000000    -3.454000000    -4.238000000
O     6.285000000     1.576000000    -2.308000000
H     5.379000000     1.861000000    -2.428000000
H     6.804000000     2.219000000    -2.791000000
O    -6.082000000    -4.387000000     2.671000000
H    -5.247000000    -3.999000000     2.933000000
H    -6.713000000    -3.671000000     2.750000000
O    -4.808000000     1.634000000     0.216000000
H    -4.347000000     2.473000000     0.187000000
H    -4.226000000     1.058000000     0.712000000
O     1.194000000    -2.453000000     4.499000000
H     1.289000000    -3.183000000     3.887000000
H     1.961000000    -2.517000000     5.068000000
O     6.604000000    -3.318000000    -4.025000000
H     5.698000000    -3.046000000    -3.880000000
H     6.942000000    -3.504000000    -3.149000000
O     0.743000000     1.140000000     7.979000000
H     0.976000000     0.971000000     7.067000000
H     1.514000000     1.569000000     8.348000000
O    -4.142000000     1.803000000     3.725000000
H    -3.521000000     1.232000000     3.273000000
H    -3.980000000     2.672000000     3.357000000
O    -5.930000000     2.798000000     5.663000000
H    -5.564000000     2.816000000     6.547000000
H    -5.291000000     2.305000000     5.149000000
O     6.367000000     2.212000000     0.287000000
H     6.478000000     2.022000000    -0.644000000
H     5.730000000     2.925000000     0.312000000
O     5.031000000    -1.885000000    -0.749000000
H     4.180000000    -1.919000000    -0.312000000
H     4.819000000    -1.829000000    -1.681000000
O    -1.402000000     2.025000000     4.997000000
H    -1.782000000     1.711000000     5.817000000
H    -1.722000000     1.412000000     4.334000000
O    -2.663000000     3.197000000     1.013000000
H    -1.796000000     3.258000000     1.414000000
H    -3.253000000     3.586000000     1.658000000
O     6.618000000    -0.500000000     0.795000000
H     6.238000000    -1.059000000     0.117000000
H     6.246000000     0.366000000     0.629000000
O    -1.135000000    -1.179000000    -5.166000000
H    -1.744000000    -0.801000000    -4.531000000
H    -1.696000000    -1.515000000    -5.865000000
O    -4.699000000    -0.546000000     7.053000000
H    -4.586000000    -0.791000000     6.135000000
H    -3.940000000     0.002000000     7.250000000
O     2.750000000    -2.362000000    -5.605000000
H     2.208000000    -1.588000000    -5.760000000
H     3.640000000    -2.077000000    -5.811000000
O    -2.354000000     2.284000000    -1.558000000
H    -1.410000000     2.354000000    -1.698000000
H    -2.472000000     2.467000000    -0.625000000
O    -6.715000000     0.641000000    -1.712000000
H    -7.109000000     1.356000000    -2.213000000
H    -6.210000000     1.078000000    -1.027000000
O     3.898000000    -0.365000000     2.400000000
H     4.705000000    -0.250000000     2.903000000
H     3.750000000    -1.311000000     2.399000000
O    -3.287000000    -0.125000000    -3.403000000
H    -3.951000000     0.317000000    -3.932000000
H    -3.043000000     0.520000000    -2.739000000
O     2.720000000    -2.832000000     0.350000000
H     2.047000000    -3.096000000    -0.278000000
H     2.383000000    -3.122000000     1.198000000
O    -2.073000000     0.612000000     7.270000000
H    -2.007000000    -0.102000000     6.636000000
H    -1.320000000     0.490000000     7.848000000
O     2.715000000     5.278000000    -2.246000000
H     1.842000000     5.609000000    -2.457000000
H     3.301000000     6.011000000    -2.436000000
O    -8.541000000    -2.312000000     0.970000000
H    -8.331000000    -2.396000000     0.040000000
H    -7.898000000    -1.689000000     1.307000000
O    -0.242000000     2.872000000     2.663000000
H     0.647000000     2.640000000     2.932000000
H    -0.769000000     2.761000000     3.454000000
O    -4.671000000    -1.298000000     4.467000000
H    -5.529000000    -1.247000000     4.047000000
H    -4.083000000    -0.837000000     3.869000000
O    -1.053000000    -1.197000000     5.397000000
H    -1.349000000    -0.826000000     4.566000000
H    -0.230000000    -1.636000000     5.184000000
