161
-3019.81641
C    -0.152000000    -1.189000000     0.734000000
H    -0.143000000    -2.208000000     1.112000000
C    -0.357000000    -1.012000000    -0.582000000
H    -0.461000000    -1.873000000    -1.236000000
C    -0.206000000     0.222000000    -1.183000000
C    -0.373000000     0.200000000    -2.632000000
H    -0.177000000     1.147000000    -3.140000000
H     0.324000000    -0.541000000    -3.030000000
H    -1.337000000    -0.217000000    -2.931000000
C     0.117000000     1.337000000    -0.405000000
H     0.161000000     2.318000000    -0.871000000
C     0.164000000     1.191000000     1.001000000
H     0.401000000     2.005000000     1.682000000
C     0.026000000    -0.096000000     1.556000000
C     0.517000000    -0.334000000     2.950000000
O     0.837000000     0.538000000     3.657000000
O     0.651000000    -1.496000000     3.323000000
O    -1.773000000     5.886000000     3.230000000
H    -1.930000000     6.826000000     3.140000000
H    -2.272000000     5.490000000     2.515000000
O     2.818000000    -1.227000000    -4.681000000
H     3.078000000    -0.861000000    -5.526000000
H     2.685000000    -2.159000000    -4.854000000
O    -2.125000000    -1.766000000     4.168000000
H    -1.182000000    -1.598000000     4.185000000
H    -2.247000000    -2.374000000     3.438000000
O    -3.043000000     3.061000000    -1.962000000
H    -3.491000000     3.576000000    -2.633000000
H    -3.569000000     2.265000000    -1.880000000
O    -2.799000000     3.634000000     5.223000000
H    -2.514000000     4.263000000     4.561000000
H    -3.091000000     4.175000000     5.957000000
O    -0.106000000     5.159000000    -0.251000000
H    -0.970000000     5.084000000     0.154000000
H     0.481000000     5.371000000     0.475000000
O    -2.650000000     1.484000000     2.687000000
H    -2.072000000     0.866000000     3.135000000
H    -2.709000000     2.232000000     3.281000000
O    -4.429000000    -0.156000000     1.043000000
H    -5.083000000    -0.135000000     1.742000000
H    -3.699000000     0.363000000     1.382000000
O    -4.166000000     0.397000000    -1.755000000
H    -3.701000000    -0.287000000    -2.237000000
H    -3.966000000     0.220000000    -0.836000000
O     3.804000000    -0.501000000    -1.820000000
H     3.427000000    -0.457000000    -2.699000000
H     3.429000000    -1.295000000    -1.439000000
O    -0.448000000    -4.602000000    -5.096000000
H     0.439000000    -4.250000000    -5.165000000
H    -0.735000000    -4.708000000    -6.003000000
O    -1.105000000     3.597000000    -5.855000000
H    -1.916000000     3.388000000    -6.318000000
H    -1.354000000     3.618000000    -4.931000000
O    -0.371000000    -4.494000000     5.111000000
H    -1.298000000    -4.589000000     4.896000000
H    -0.257000000    -5.006000000     5.912000000
O    -1.883000000     1.374000000     7.403000000
H    -2.686000000     1.445000000     6.888000000
H    -1.189000000     1.275000000     6.751000000
O    -0.575000000     4.402000000    -2.761000000
H    -0.319000000     4.607000000    -1.862000000
H    -1.394000000     3.914000000    -2.672000000
O     1.792000000    -4.094000000    -1.544000000
H     2.033000000    -5.011000000    -1.678000000
H     1.191000000    -3.897000000    -2.263000000
O    -2.198000000    -4.631000000     1.182000000
H    -2.627000000    -3.900000000     0.737000000
H    -1.596000000    -4.989000000     0.530000000
O    -2.295000000     0.039000000    -5.219000000
H    -2.251000000    -0.572000000    -4.483000000
H    -3.214000000     0.306000000    -5.253000000
O     3.413000000    -0.507000000     4.343000000
H     2.480000000    -0.634000000     4.172000000
H     3.838000000    -0.697000000     3.506000000
O     2.915000000     0.638000000     7.044000000
H     2.888000000    -0.197000000     6.577000000
H     2.094000000     1.070000000     6.810000000
O     0.730000000    -2.145000000     5.720000000
H     0.285000000    -2.982000000     5.581000000
H     0.669000000    -1.698000000     4.876000000
O     5.611000000     2.628000000     2.666000000
H     5.009000000     3.169000000     2.155000000
H     5.075000000     2.283000000     3.381000000
O     2.827000000    -2.859000000     0.516000000
H     2.585000000    -3.273000000    -0.313000000
H     2.249000000    -3.264000000     1.163000000
O    -0.053000000    -1.053000000    -6.374000000
H    -0.578000000    -0.454000000    -5.843000000
H    -0.567000000    -1.178000000    -7.172000000
O    -6.789000000     0.580000000    -2.237000000
H    -6.994000000     0.023000000    -1.486000000
H    -5.833000000     0.632000000    -2.244000000
O     4.132000000     5.196000000    -0.845000000
H     3.813000000     4.988000000    -1.723000000
H     4.948000000     5.674000000    -0.994000000
O    -2.259000000    -4.510000000    -2.946000000
H    -1.769000000    -4.867000000    -3.688000000
H    -2.387000000    -5.258000000    -2.362000000
O     2.416000000     1.745000000    -4.604000000
H     1.758000000     1.805000000    -5.297000000
H     2.655000000     0.818000000    -4.581000000
O     0.407000000     1.286000000     6.052000000
H     0.481000000     1.046000000     5.128000000
H     0.646000000     2.213000000     6.079000000
O    -2.867000000     4.236000000     1.015000000
H    -3.798000000     4.213000000     1.236000000
H    -2.768000000     3.579000000     0.326000000
O     1.733000000     3.650000000     6.424000000
H     2.026000000     3.541000000     5.520000000
H     0.909000000     4.131000000     6.353000000
O     1.464000000     3.030000000     3.809000000
H     1.137000000     2.134000000     3.731000000
H     1.754000000     3.257000000     2.925000000
O     1.048000000     5.842000000     2.225000000
H     1.583000000     6.250000000     2.906000000
H     0.277000000     5.516000000     2.690000000
O     3.401000000    -2.408000000     6.484000000
H     3.780000000    -2.079000000     5.669000000
H     2.476000000    -2.542000000     6.282000000
O     3.547000000     3.704000000     1.262000000
H     3.829000000     3.874000000     0.364000000
H     2.949000000     4.423000000     1.466000000
O    -3.438000000    -1.875000000    -3.121000000
H    -2.967000000    -2.708000000    -3.114000000
H    -4.356000000    -2.119000000    -3.242000000
O     4.505000000    -0.981000000     1.306000000
H     4.658000000    -0.399000000     0.562000000
H     3.693000000    -1.439000000     1.090000000
O     4.856000000     1.943000000     5.094000000
H     5.538000000     1.735000000     5.733000000
H     4.314000000     1.154000000     5.057000000
O    -3.123000000    -5.417000000     3.915000000
H    -2.786000000    -5.175000000     3.053000000
H    -3.432000000    -6.317000000     3.808000000
O     3.240000000    -6.389000000     3.410000000
H     4.184000000    -6.541000000     3.443000000
H     3.154000000    -5.447000000     3.258000000
O     1.691000000     7.204000000    -1.592000000
H     2.435000000     6.863000000    -1.096000000
H     0.945000000     6.684000000    -1.292000000
O     4.430000000     2.402000000    -1.944000000
H     3.897000000     1.817000000    -1.407000000
H     3.795000000     2.907000000    -2.452000000
O     2.406000000     3.811000000    -2.885000000
H     1.632000000     4.348000000    -3.056000000
H     2.193000000     2.957000000    -3.259000000
O     0.850000000     2.247000000    -6.758000000
H     0.147000000     2.818000000    -6.449000000
H     0.412000000     1.424000000    -6.975000000
O     1.120000000    -4.206000000     2.117000000
H     0.785000000    -5.094000000     2.237000000
H     0.617000000    -3.675000000     2.734000000
O    -3.981000000    -0.169000000     5.239000000
H    -4.674000000     0.069000000     4.624000000
H    -3.391000000    -0.726000000     4.732000000
O    -4.163000000    -2.664000000    -0.163000000
H    -4.022000000    -2.562000000    -1.105000000
H    -4.398000000    -1.786000000     0.139000000
O    -0.037000000    -1.069000000     8.098000000
H     0.112000000    -1.431000000     7.225000000
H    -0.655000000    -0.351000000     7.958000000
