161
-3077.45098
C     0.636000000    -1.338000000     0.205000000
H     1.191000000    -2.273000000     0.243000000
C     0.290000000    -0.762000000    -1.030000000
H     0.583000000    -1.151000000    -2.002000000
C    -0.411000000     0.455000000    -1.057000000
C    -0.602000000     1.162000000    -2.435000000
H     0.362000000     1.558000000    -2.761000000
H    -0.966000000     0.455000000    -3.184000000
H    -1.318000000     1.974000000    -2.289000000
C    -0.608000000     1.236000000     0.100000000
H    -0.965000000     2.262000000     0.087000000
C    -0.273000000     0.629000000     1.338000000
H    -0.551000000     1.057000000     2.298000000
C     0.320000000    -0.648000000     1.408000000
C     0.736000000    -1.313000000     2.681000000
O     0.816000000    -0.765000000     3.795000000
O     0.765000000    -2.541000000     2.595000000
O     0.755000000     1.520000000     8.016000000
H     1.258000000     0.871000000     8.509000000
H     0.310000000     1.013000000     7.337000000
O     4.889000000    -4.423000000     0.501000000
H     4.132000000    -4.836000000     0.084000000
H     4.548000000    -3.605000000     0.861000000
O    -3.246000000     3.028000000     0.193000000
H    -3.892000000     3.470000000    -0.358000000
H    -3.129000000     2.171000000    -0.216000000
O    -3.281000000     1.957000000     2.791000000
H    -3.187000000     2.429000000     1.963000000
H    -3.578000000     1.084000000     2.536000000
O    -2.265000000     3.575000000    -3.980000000
H    -2.058000000     4.509000000    -3.941000000
H    -1.430000000     3.154000000    -4.185000000
O    -0.413000000     0.114000000     5.995000000
H    -0.744000000     0.990000000     5.797000000
H    -0.200000000    -0.261000000     5.141000000
O    -1.639000000    -3.426000000     3.762000000
H    -1.747000000    -3.482000000     4.712000000
H    -0.736000000    -3.131000000     3.641000000
O    -0.201000000     5.594000000     4.208000000
H     0.464000000     5.836000000     4.853000000
H     0.181000000     4.853000000     3.738000000
O    -4.324000000    -1.165000000     2.266000000
H    -4.518000000    -1.263000000     3.198000000
H    -4.078000000    -2.045000000     1.979000000
O    -1.148000000    -5.522000000    -2.349000000
H    -0.485000000    -5.403000000    -3.030000000
H    -0.660000000    -5.472000000    -1.528000000
O     0.978000000     1.549000000    -6.800000000
H     0.147000000     1.340000000    -7.226000000
H     0.758000000     2.237000000    -6.171000000
O     0.636000000     3.476000000    -4.921000000
H     0.522000000     4.421000000    -4.825000000
H     1.290000000     3.245000000    -4.262000000
O    -1.273000000     4.514000000     1.283000000
H    -2.049000000     4.017000000     1.024000000
H    -1.552000000     5.011000000     2.052000000
O    -2.830000000     0.272000000    -5.177000000
H    -2.348000000     1.052000000    -4.902000000
H    -3.159000000    -0.106000000    -4.361000000
O     3.790000000    -2.028000000    -1.538000000
H     3.872000000    -1.640000000    -2.409000000
H     4.421000000    -1.549000000    -1.002000000
O    -0.143000000     4.745000000    -1.257000000
H    -0.682000000     5.302000000    -1.817000000
H    -0.686000000     4.584000000    -0.485000000
O     4.052000000     3.792000000    -4.737000000
H     4.866000000     3.522000000    -4.312000000
H     3.467000000     4.018000000    -4.014000000
O     3.558000000    -4.481000000    -2.489000000
H     4.437000000    -4.528000000    -2.864000000
H     3.475000000    -3.577000000    -2.185000000
O     4.890000000    -0.625000000     4.223000000
H     5.504000000    -0.060000000     3.754000000
H     5.447000000    -1.227000000     4.716000000
O     3.078000000    -3.115000000     7.591000000
H     3.464000000    -2.241000000     7.524000000
H     2.335000000    -3.095000000     6.989000000
O     3.536000000    -2.490000000     2.799000000
H     3.770000000    -1.667000000     3.228000000
H     2.804000000    -2.262000000     2.227000000
O    -3.715000000     0.219000000    -0.044000000
H    -4.216000000    -0.178000000     0.669000000
H    -3.901000000    -0.333000000    -0.804000000
O     0.970000000    -5.005000000    -4.293000000
H     1.329000000    -4.297000000    -3.757000000
H     1.413000000    -5.792000000    -3.977000000
O    -4.377000000     2.165000000    -2.907000000
H    -3.633000000     2.705000000    -3.173000000
H    -4.025000000     1.276000000    -2.862000000
O     2.471000000    -2.281000000    -5.041000000
H     2.027000000    -2.440000000    -5.874000000
H     3.328000000    -2.693000000    -5.144000000
O     1.216000000     3.202000000     3.418000000
H     1.814000000     2.484000000     3.208000000
H     0.677000000     2.863000000     4.133000000
O    -2.062000000     6.258000000    -2.504000000
H    -2.532000000     6.458000000    -3.314000000
H    -2.493000000     6.794000000    -1.838000000
O     2.639000000    -6.168000000     1.032000000
H     3.411000000    -6.590000000     1.411000000
H     2.150000000    -5.842000000     1.787000000
O     0.949000000    -2.958000000     5.627000000
H     1.021000000    -2.291000000     4.944000000
H     0.008000000    -3.101000000     5.725000000
O    -1.566000000     2.404000000     4.784000000
H    -2.026000000     3.131000000     5.204000000
H    -2.082000000     2.215000000     4.000000000
O    -4.525000000     5.816000000    -1.078000000
H    -5.075000000     6.328000000    -0.485000000
H    -3.859000000     5.427000000    -0.511000000
O     2.582000000     0.944000000     4.702000000
H     3.367000000     0.414000000     4.565000000
H     1.857000000     0.357000000     4.486000000
O     4.525000000     0.201000000    -2.989000000
H     5.105000000     0.948000000    -2.839000000
H     3.999000000     0.456000000    -3.748000000
O     3.980000000     3.018000000     0.141000000
H     3.483000000     2.248000000    -0.135000000
H     3.319000000     3.702000000     0.253000000
O    -2.668000000    -2.623000000    -5.805000000
H    -2.161000000    -2.097000000    -5.186000000
H    -2.151000000    -3.419000000    -5.923000000
O    -0.776000000    -4.212000000     0.926000000
H    -0.066000000    -3.877000000     1.474000000
H    -1.553000000    -3.741000000     1.226000000
O    -3.578000000    -3.767000000     1.885000000
H    -3.005000000    -3.566000000     2.625000000
H    -3.578000000    -4.722000000     1.835000000
O     2.206000000     3.184000000     6.328000000
H     1.844000000     2.657000000     7.040000000
H     2.366000000     2.557000000     5.623000000
O     1.429000000    -4.958000000     3.204000000
H     1.332000000    -4.034000000     2.974000000
H     1.025000000    -5.034000000     4.069000000
O     2.653000000     1.246000000    -1.144000000
H     3.251000000     0.637000000    -1.577000000
H     2.145000000     0.697000000    -0.546000000
O    -1.966000000    -2.555000000    -2.123000000
H    -1.763000000    -2.419000000    -1.198000000
H    -1.613000000    -3.423000000    -2.320000000
O    -1.370000000     0.752000000    -7.319000000
H    -2.080000000     0.600000000    -6.696000000
H    -1.318000000    -0.059000000    -7.825000000
O     1.454000000     4.478000000     1.064000000
H     1.751000000     3.876000000     1.746000000
H     0.548000000     4.219000000     0.894000000
O     3.055000000     0.370000000    -5.372000000
H     2.333000000     0.689000000    -5.914000000
H     2.796000000    -0.517000000    -5.125000000
O    -4.092000000    -0.740000000    -2.610000000
H    -4.772000000    -1.344000000    -2.910000000
H    -3.396000000    -1.308000000    -2.281000000
O     2.053000000     3.620000000    -2.579000000
H     2.130000000     2.827000000    -2.049000000
H     1.223000000     4.011000000    -2.307000000
O    -0.199000000    -7.000000000     0.971000000
H    -0.111000000    -6.093000000     0.677000000
H     0.084000000    -6.983000000     1.885000000
O     1.419000000    -5.169000000    -1.197000000
H     1.733000000    -5.473000000    -0.345000000
H     2.163000000    -5.299000000    -1.786000000
