161
-3031.61445
C     0.259000000    -1.340000000     0.485000000
H     0.280000000    -2.412000000     0.663000000
C    -0.080000000    -0.931000000    -0.777000000
H    -0.175000000    -1.575000000    -1.648000000
C    -0.278000000     0.381000000    -1.133000000
C    -0.855000000     0.709000000    -2.495000000
H    -0.533000000     1.745000000    -2.623000000
H    -0.460000000     0.097000000    -3.309000000
H    -1.944000000     0.695000000    -2.563000000
C    -0.127000000     1.340000000    -0.162000000
H    -0.402000000     2.354000000    -0.443000000
C     0.236000000     0.936000000     1.195000000
H     0.329000000     1.696000000     1.966000000
C     0.534000000    -0.416000000     1.423000000
C     0.965000000    -0.959000000     2.749000000
O     1.034000000    -0.168000000     3.670000000
O     1.218000000    -2.160000000     3.008000000
O     1.485000000     2.143000000     7.485000000
H     1.032000000     1.415000000     7.058000000
H     0.796000000     2.785000000     7.658000000
O     3.483000000    -4.475000000    -0.194000000
H     2.534000000    -4.375000000    -0.117000000
H     3.824000000    -3.584000000    -0.115000000
O    -2.713000000    -0.878000000     6.560000000
H    -2.032000000    -0.451000000     6.042000000
H    -2.292000000    -1.070000000     7.398000000
O    -5.295000000     4.464000000    -0.399000000
H    -4.681000000     5.110000000    -0.746000000
H    -5.007000000     3.633000000    -0.776000000
O     2.035000000    -2.199000000    -5.962000000
H     2.946000000    -2.192000000    -6.254000000
H     2.058000000    -2.639000000    -5.113000000
O    -3.845000000     2.320000000     1.310000000
H    -3.925000000     2.456000000     0.366000000
H    -4.645000000     1.854000000     1.554000000
O    -1.795000000     3.736000000    -3.693000000
H    -2.316000000     4.538000000    -3.663000000
H    -2.179000000     3.227000000    -4.407000000
O    -1.121000000     0.363000000     4.941000000
H    -1.556000000     1.101000000     4.512000000
H    -0.281000000     0.285000000     4.490000000
O    -3.521000000    -3.769000000     2.697000000
H    -3.774000000    -3.273000000     3.476000000
H    -2.566000000    -3.804000000     2.735000000
O    -1.668000000     6.137000000     3.944000000
H    -2.623000000     6.099000000     3.896000000
H    -1.371000000     5.594000000     3.213000000
O    -4.606000000    -0.889000000     2.827000000
H    -3.954000000    -1.258000000     2.231000000
H    -4.589000000    -1.468000000     3.589000000
O    -2.310000000    -4.507000000    -3.751000000
H    -1.705000000    -4.297000000    -4.462000000
H    -1.748000000    -4.834000000    -3.048000000
O     0.532000000     3.297000000    -6.386000000
H     0.017000000     2.566000000    -6.728000000
H     0.515000000     3.177000000    -5.436000000
O     0.947000000     3.526000000    -3.546000000
H     1.309000000     3.212000000    -2.718000000
H     0.019000000     3.673000000    -3.362000000
O    -2.082000000     4.813000000     1.341000000
H    -2.130000000     5.348000000     0.550000000
H    -2.760000000     4.148000000     1.223000000
O    -5.501000000     1.205000000    -4.933000000
H    -5.329000000     0.855000000    -4.059000000
H    -5.777000000     0.445000000    -5.445000000
O     3.928000000    -1.777000000    -0.300000000
H     3.325000000    -1.412000000    -0.948000000
H     4.766000000    -1.353000000    -0.488000000
O     1.446000000     0.488000000    -5.375000000
H     1.548000000    -0.280000000    -5.938000000
H     0.500000000     0.605000000    -5.300000000
O     1.765000000    -3.132000000    -2.889000000
H     2.611000000    -3.492000000    -3.155000000
H     1.966000000    -2.247000000    -2.585000000
O     5.343000000     0.180000000     5.421000000
H     5.757000000     1.026000000     5.589000000
H     6.025000000    -0.339000000     4.994000000
O     3.578000000    -2.189000000     4.579000000
H     3.183000000    -1.589000000     5.210000000
H     2.854000000    -2.452000000     4.011000000
O    -0.117000000    -4.535000000    -5.450000000
H    -0.066000000    -3.840000000    -6.107000000
H     0.740000000    -4.524000000    -5.023000000
O    -3.900000000     2.312000000    -1.598000000
H    -3.306000000     2.670000000    -2.258000000
H    -4.262000000     1.524000000    -2.004000000
O     0.874000000     3.504000000     5.201000000
H     1.475000000     2.999000000     4.654000000
H     0.004000000     3.279000000     4.873000000
O    -0.137000000     0.992000000    -8.230000000
H    -0.635000000     0.333000000    -7.746000000
H    -0.684000000     1.777000000    -8.196000000
O     0.527000000    -5.172000000     0.892000000
H    -0.181000000    -5.789000000     1.076000000
H     0.288000000    -4.382000000     1.377000000
O     4.228000000    -0.432000000     2.169000000
H     3.952000000    -0.984000000     1.437000000
H     4.097000000    -0.979000000     2.944000000
O     1.022000000    -1.272000000     6.366000000
H     1.146000000    -1.069000000     5.439000000
H     0.370000000    -0.638000000     6.665000000
O    -2.084000000     2.534000000     3.578000000
H    -2.968000000     2.769000000     3.860000000
H    -2.108000000     2.610000000     2.624000000
O    -2.721000000     6.238000000    -1.125000000
H    -2.223000000     6.351000000    -1.934000000
H    -2.849000000     7.128000000    -0.796000000
O     2.826000000     1.597000000     4.092000000
H     3.554000000     1.202000000     4.570000000
H     2.263000000     0.859000000     3.860000000
O     3.036000000    -0.514000000    -2.705000000
H     3.676000000    -0.537000000    -3.416000000
H     2.320000000     0.024000000    -3.044000000
O    -0.130000000    -5.496000000     5.557000000
H    -0.940000000    -5.275000000     6.018000000
H    -0.012000000    -6.432000000     5.715000000
O     3.548000000     2.910000000     1.420000000
H     2.838000000     3.553000000     1.420000000
H     3.344000000     2.329000000     2.153000000
O    -3.822000000    -1.771000000    -1.240000000
H    -4.121000000    -2.675000000    -1.146000000
H    -2.936000000    -1.772000000    -0.877000000
O     5.747000000    -3.503000000     5.277000000
H     5.007000000    -3.190000000     4.756000000
H     5.350000000    -4.063000000     5.943000000
O     1.814000000     5.977000000    -4.916000000
H     1.709000000     5.041000000    -4.749000000
H     2.317000000     6.299000000    -4.169000000
O     2.780000000     6.220000000    -2.126000000
H     2.293000000     6.631000000    -1.411000000
H     2.874000000     5.306000000    -1.857000000
O    -0.822000000    -4.122000000     3.314000000
H    -0.168000000    -3.424000000     3.279000000
H    -0.618000000    -4.602000000     4.117000000
O    -1.629000000     0.278000000    -5.557000000
H    -2.094000000    -0.061000000    -4.792000000
H    -1.933000000    -0.267000000    -6.283000000
O     2.910000000     3.510000000    -1.468000000
H     3.101000000     3.042000000    -0.655000000
H     3.653000000     3.312000000    -2.039000000
O    -3.278000000    -1.148000000    -3.996000000
H    -3.259000000    -2.097000000    -4.116000000
H    -3.995000000    -0.999000000    -3.379000000
O    -3.352000000     2.550000000    -5.633000000
H    -4.262000000     2.306000000    -5.464000000
H    -2.859000000     1.739000000    -5.505000000
O     1.699000000     4.805000000     1.689000000
H     1.116000000     4.482000000     2.377000000
H     1.207000000     5.512000000     1.271000000
O    -5.566000000     0.062000000    -2.445000000
H    -5.331000000    -0.712000000    -1.933000000
H    -6.364000000     0.390000000    -2.030000000
O     3.109000000    -6.880000000     1.737000000
H     3.681000000    -7.328000000     1.114000000
H     2.455000000    -6.443000000     1.191000000
O     0.042000000    -5.293000000    -2.149000000
H     0.108000000    -5.368000000    -1.197000000
H     0.611000000    -4.557000000    -2.371000000
O     3.948000000     0.863000000     7.641000000
H     3.151000000     1.390000000     7.695000000
H     3.974000000     0.560000000     6.734000000
