161
-3042.64676
C    -0.376000000    -1.468000000     0.121000000
H    -0.468000000    -2.550000000     0.142000000
C     0.382000000    -0.857000000    -0.863000000
H     0.900000000    -1.530000000    -1.542000000
C     0.587000000     0.515000000    -1.008000000
C     1.627000000     1.033000000    -1.956000000
H     2.026000000     1.977000000    -1.578000000
H     2.468000000     0.337000000    -1.929000000
H     1.342000000     1.275000000    -2.982000000
C     0.044000000     1.326000000     0.007000000
H     0.326000000     2.372000000    -0.079000000
C    -0.763000000     0.756000000     1.028000000
H    -1.202000000     1.330000000     1.840000000
C    -0.969000000    -0.659000000     1.061000000
C    -1.717000000    -1.171000000     2.258000000
O    -2.282000000    -0.357000000     2.992000000
O    -1.920000000    -2.337000000     2.482000000
O     0.278000000     0.252000000    -6.883000000
H     0.332000000     1.207000000    -6.921000000
H    -0.622000000     0.074000000    -6.611000000
O    -2.641000000    -0.966000000     5.533000000
H    -1.858000000    -1.432000000     5.829000000
H    -2.470000000    -0.773000000     4.611000000
O     1.050000000    -3.715000000    -3.297000000
H     1.775000000    -3.536000000    -2.699000000
H     0.795000000    -2.854000000    -3.630000000
O    -4.064000000    -4.183000000     5.851000000
H    -4.390000000    -5.083000000     5.855000000
H    -4.766000000    -3.676000000     5.443000000
O    -0.600000000    -5.620000000    -0.515000000
H    -1.142000000    -6.287000000    -0.094000000
H    -1.225000000    -4.975000000    -0.844000000
O    -4.576000000    -2.470000000     1.835000000
H    -4.497000000    -3.344000000     2.216000000
H    -3.773000000    -2.020000000     2.100000000
O    -1.280000000     3.069000000    -3.918000000
H    -2.075000000     2.830000000    -3.441000000
H    -0.708000000     3.453000000    -3.253000000
O    -0.862000000     4.205000000     2.400000000
H    -0.540000000     4.902000000     2.972000000
H    -1.717000000     3.973000000     2.764000000
O     4.593000000     6.421000000    -2.380000000
H     4.765000000     6.199000000    -3.295000000
H     4.164000000     5.644000000    -2.022000000
O     2.693000000     2.654000000    -7.012000000
H     1.883000000     3.160000000    -6.941000000
H     2.956000000     2.495000000    -6.106000000
O    -7.054000000    -1.758000000     3.107000000
H    -7.550000000    -2.572000000     3.197000000
H    -6.160000000    -1.994000000     3.355000000
O    -5.282000000    -1.480000000     5.397000000
H    -4.350000000    -1.258000000     5.402000000
H    -5.728000000    -0.634000000     5.351000000
O     4.258000000     3.282000000    -4.157000000
H     3.826000000     3.060000000    -3.332000000
H     4.113000000     4.222000000    -4.258000000
O     3.414000000    -6.440000000    -1.819000000
H     2.811000000    -5.697000000    -1.799000000
H     2.852000000    -7.208000000    -1.716000000
O    -2.621000000    -4.128000000    -1.592000000
H    -3.021000000    -4.692000000    -2.254000000
H    -3.248000000    -4.125000000    -0.869000000
O    -0.064000000    -2.629000000     6.610000000
H     0.736000000    -2.373000000     6.151000000
H    -0.041000000    -3.586000000     6.617000000
O    -4.039000000     1.072000000    -0.751000000
H    -4.082000000     1.087000000     0.205000000
H    -4.866000000     1.463000000    -1.034000000
O    -3.261000000     3.408000000    -1.968000000
H    -3.262000000     2.703000000    -1.320000000
H    -3.412000000     4.203000000    -1.456000000
O     6.754000000    -1.007000000     0.093000000
H     7.707000000    -1.011000000     0.003000000
H     6.447000000    -0.474000000    -0.640000000
O    -3.123000000    -4.704000000     3.245000000
H    -3.001000000    -4.731000000     4.194000000
H    -2.789000000    -3.846000000     2.985000000
O    -0.341000000     6.875000000    -0.308000000
H     0.113000000     7.550000000     0.196000000
H     0.303000000     6.585000000    -0.953000000
O     4.798000000     0.406000000    -4.518000000
H     5.593000000     0.837000000    -4.831000000
H     4.272000000     0.272000000    -5.306000000
O     1.238000000    -5.481000000     4.374000000
H     1.241000000    -4.731000000     3.778000000
H     0.558000000    -5.274000000     5.015000000
O     3.861000000    -1.942000000     0.613000000
H     3.358000000    -1.213000000     0.976000000
H     4.734000000    -1.578000000     0.463000000
O     2.568000000     0.309000000     1.541000000
H     3.015000000     1.061000000     1.153000000
H     1.638000000     0.477000000     1.388000000
O     3.144000000    -3.541000000    -1.614000000
H     4.083000000    -3.703000000    -1.702000000
H     3.023000000    -3.327000000    -0.689000000
O    -3.758000000    -5.618000000     0.712000000
H    -3.388000000    -5.387000000     1.564000000
H    -4.378000000    -6.322000000     0.902000000
O     3.093000000     4.322000000    -0.821000000
H     2.831000000     5.088000000    -0.310000000
H     3.544000000     3.757000000    -0.194000000
O    -4.998000000    -1.968000000    -0.900000000
H    -4.862000000    -2.015000000     0.046000000
H    -4.161000000    -1.659000000    -1.247000000
O    -2.795000000     2.318000000     3.856000000
H    -2.898000000     2.465000000     4.797000000
H    -2.527000000     1.402000000     3.785000000
O    -0.018000000     3.058000000    -6.134000000
H    -0.603000000     3.009000000    -5.378000000
H    -0.134000000     3.947000000    -6.469000000
O    -0.349000000    -5.922000000    -3.242000000
H     0.318000000    -5.313000000    -3.558000000
H    -0.557000000    -5.613000000    -2.360000000
O     0.177000000     1.094000000     5.487000000
H    -0.014000000     0.856000000     6.394000000
H    -0.036000000     2.025000000     5.433000000
O     1.796000000    -4.944000000     0.826000000
H     0.909000000    -5.081000000     0.492000000
H     1.700000000    -4.255000000     1.483000000
O    -5.833000000    -5.095000000     2.908000000
H    -6.364000000    -5.372000000     3.654000000
H    -4.942000000    -5.361000000     3.136000000
O    -4.623000000     0.468000000     1.911000000
H    -5.237000000    -0.265000000     1.872000000
H    -3.914000000     0.156000000     2.472000000
O     6.352000000     0.626000000    -2.205000000
H     6.271000000     1.572000000    -2.321000000
H     5.922000000     0.252000000    -2.975000000
O     1.586000000    -1.177000000     4.845000000
H     1.050000000    -0.414000000     4.625000000
H     2.450000000    -0.974000000     4.486000000
O     1.009000000    -1.200000000    -4.441000000
H     1.400000000    -0.403000000    -4.083000000
H     0.851000000    -0.996000000    -5.363000000
O     1.092000000     4.286000000    -3.058000000
H     1.788000000     3.865000000    -2.552000000
H     1.220000000     5.222000000    -2.908000000
O     2.029000000     3.625000000     3.090000000
H     1.434000000     3.564000000     2.343000000
H     1.453000000     3.695000000     3.850000000
O    -3.194000000    -1.627000000    -4.470000000
H    -2.841000000    -1.522000000    -3.586000000
H    -2.991000000    -2.532000000    -4.703000000
O     2.727000000    -3.815000000    -5.780000000
H     2.042000000    -3.452000000    -5.219000000
H     3.538000000    -3.429000000    -5.449000000
O     3.998000000     2.759000000     1.343000000
H     4.927000000     2.688000000     1.562000000
H     3.560000000     2.862000000     2.188000000
O     0.560000000    -3.264000000     2.784000000
H     0.858000000    -2.484000000     3.253000000
H    -0.390000000    -3.162000000     2.729000000
O    -4.623000000     3.906000000     1.878000000
H    -4.015000000     4.561000000     1.536000000
H    -4.062000000     3.264000000     2.315000000
O    -2.615000000     5.482000000     0.559000000
H    -2.006000000     5.806000000    -0.104000000
H    -2.096000000     5.443000000     1.363000000
O    -2.718000000    -0.983000000    -1.798000000
H    -1.840000000    -1.093000000    -1.435000000
H    -2.997000000    -0.119000000    -1.493000000
