161
-3045.24036
C    -1.290000000    -0.590000000    -0.585000000
H    -2.096000000    -1.069000000    -1.134000000
C    -0.028000000    -0.531000000    -1.198000000
H     0.083000000    -1.052000000    -2.145000000
C     1.041000000     0.108000000    -0.637000000
C     2.424000000    -0.035000000    -1.161000000
H     2.638000000    -1.038000000    -0.788000000
H     2.435000000    -0.077000000    -2.252000000
H     3.077000000     0.791000000    -0.870000000
C     0.958000000     0.672000000     0.616000000
H     1.785000000     1.026000000     1.226000000
C    -0.260000000     0.561000000     1.270000000
H    -0.245000000     0.918000000     2.297000000
C    -1.392000000     0.057000000     0.662000000
C    -2.722000000     0.074000000     1.378000000
O    -2.801000000     0.826000000     2.327000000
O    -3.611000000    -0.636000000     0.999000000
O    -4.212000000     0.925000000    -2.292000000
H    -3.309000000     0.832000000    -2.596000000
H    -4.544000000     1.691000000    -2.760000000
O    -0.717000000    -3.640000000    -2.995000000
H    -1.010000000    -2.927000000    -3.563000000
H    -1.521000000    -3.978000000    -2.601000000
O     1.619000000     2.883000000    -3.406000000
H     2.162000000     3.512000000    -2.932000000
H     1.851000000     3.012000000    -4.326000000
O     4.948000000     3.169000000    -4.616000000
H     4.568000000     3.120000000    -3.738000000
H     5.067000000     4.106000000    -4.773000000
O     3.696000000     3.294000000     0.715000000
H     4.565000000     3.597000000     0.980000000
H     3.165000000     3.368000000     1.507000000
O     1.030000000    -3.037000000     0.158000000
H     1.576000000    -3.616000000    -0.374000000
H     1.172000000    -2.166000000    -0.213000000
O     0.114000000    -3.593000000     5.125000000
H     0.139000000    -3.211000000     4.248000000
H    -0.814000000    -3.590000000     5.361000000
O    -2.775000000    -3.334000000     5.395000000
H    -3.095000000    -2.444000000     5.244000000
H    -3.287000000    -3.877000000     4.796000000
O    -3.239000000     4.043000000     0.892000000
H    -3.553000000     3.158000000     0.705000000
H    -2.678000000     3.941000000     1.661000000
O     1.619000000    -4.535000000    -2.003000000
H     2.193000000    -3.969000000    -2.519000000
H     0.755000000    -4.130000000    -2.075000000
O    -1.145000000    -4.684000000     0.493000000
H    -0.494000000    -4.117000000     0.079000000
H    -1.799000000    -4.080000000     0.845000000
O    -6.403000000    -0.510000000     1.155000000
H    -5.473000000    -0.732000000     1.188000000
H    -6.596000000    -0.155000000     2.023000000
O    -8.435000000    -2.323000000    -0.001000000
H    -9.143000000    -2.222000000     0.636000000
H    -7.682000000    -1.900000000     0.409000000
O     2.175000000     1.000000000     5.662000000
H     1.631000000     0.214000000     5.716000000
H     2.432000000     1.176000000     6.567000000
O    -4.888000000    -1.642000000    -1.487000000
H    -4.830000000    -0.820000000    -1.975000000
H    -4.599000000    -1.415000000    -0.603000000
O    -3.161000000    -3.738000000    -2.059000000
H    -3.545000000    -2.862000000    -2.108000000
H    -3.894000000    -4.330000000    -2.223000000
O     3.953000000     3.815000000    -1.914000000
H     4.542000000     4.568000000    -1.894000000
H     3.747000000     3.646000000    -0.995000000
O    -6.654000000     0.565000000     3.699000000
H    -6.887000000     0.144000000     4.527000000
H    -6.268000000     1.402000000     3.957000000
O     3.915000000     2.150000000     3.678000000
H     3.429000000     1.703000000     4.370000000
H     4.186000000     1.449000000     3.084000000
O     2.331000000    -1.766000000    -7.087000000
H     2.587000000    -0.844000000    -7.057000000
H     1.709000000    -1.866000000    -6.367000000
O     5.520000000     0.459000000    -3.929000000
H     5.268000000    -0.316000000    -4.431000000
H     4.948000000     1.153000000    -4.258000000
O     2.591000000    -2.594000000    -3.768000000
H     1.694000000    -2.293000000    -3.909000000
H     3.124000000    -2.034000000    -4.332000000
O    -5.948000000    -4.401000000    -0.744000000
H    -6.864000000    -4.492000000    -0.479000000
H    -5.796000000    -3.456000000    -0.757000000
O    -4.549000000     1.773000000     0.364000000
H    -4.201000000     1.496000000    -0.483000000
H    -4.535000000     0.980000000     0.900000000
O     3.487000000    -1.631000000     2.136000000
H     4.358000000    -1.662000000     1.741000000
H     3.649000000    -1.688000000     3.078000000
O     0.066000000     3.221000000     5.263000000
H     1.018000000     3.210000000     5.167000000
H    -0.079000000     3.317000000     6.205000000
O    -4.575000000     2.590000000     3.440000000
H    -3.717000000     2.291000000     3.139000000
H    -5.070000000     2.747000000     2.636000000
O    -5.435000000     4.370000000     5.664000000
H    -4.599000000     4.612000000     6.063000000
H    -5.193000000     3.957000000     4.835000000
O     5.711000000    -1.659000000    -2.150000000
H     5.924000000    -1.742000000    -1.220000000
H     5.385000000    -0.764000000    -2.242000000
O    -1.582000000     3.318000000     2.826000000
H    -1.080000000     3.096000000     3.610000000
H    -1.817000000     2.472000000     2.444000000
O    -1.980000000     4.139000000    -1.812000000
H    -2.064000000     4.112000000    -0.859000000
H    -2.829000000     4.456000000    -2.119000000
O     0.104000000    -1.665000000    -5.072000000
H    -0.463000000    -0.934000000    -4.826000000
H    -0.495000000    -2.328000000    -5.415000000
O    -3.934000000    -0.889000000     4.270000000
H    -4.864000000    -0.719000000     4.423000000
H    -3.712000000    -0.341000000     3.517000000
O     5.030000000    -2.018000000    -5.019000000
H     4.840000000    -2.775000000    -5.573000000
H     5.344000000    -2.395000000    -4.198000000
O    -1.100000000     2.547000000    -3.682000000
H    -0.166000000     2.485000000    -3.480000000
H    -1.429000000     3.221000000    -3.088000000
O    -7.762000000     0.644000000    -0.937000000
H    -7.096000000     0.180000000    -0.430000000
H    -8.556000000     0.578000000    -0.407000000
O     6.507000000     0.702000000     1.929000000
H     7.233000000     0.431000000     2.490000000
H     6.892000000     1.340000000     1.329000000
O    -2.352000000    -0.316000000     6.773000000
H    -3.110000000    -0.013000000     6.272000000
H    -1.755000000    -0.669000000     6.113000000
O    -2.097000000     0.261000000    -4.853000000
H    -2.927000000     0.395000000    -5.311000000
H    -2.031000000     1.005000000    -4.254000000
O     6.259000000    -1.547000000     0.521000000
H     7.160000000    -1.867000000     0.479000000
H     6.328000000    -0.689000000     0.940000000
O     2.456000000     4.518000000     3.767000000
H     3.113000000     5.191000000     3.589000000
H     2.966000000     3.729000000     3.951000000
O    -1.030000000    -0.528000000     4.500000000
H    -0.330000000    -0.935000000     3.989000000
H    -1.545000000    -0.041000000     3.856000000
O     4.117000000    -4.416000000     0.426000000
H     4.983000000    -4.727000000     0.161000000
H     4.257000000    -3.503000000     0.677000000
O    -6.200000000    -3.945000000     2.996000000
H    -6.843000000    -3.390000000     3.438000000
H    -6.713000000    -4.673000000     2.646000000
O    -6.728000000     3.910000000     0.250000000
H    -6.206000000     4.708000000     0.166000000
H    -6.153000000     3.213000000    -0.064000000
O     0.125000000     5.377000000     2.831000000
H     0.850000000     4.927000000     3.264000000
H    -0.515000000     4.688000000     2.656000000
O    -3.558000000    -3.391000000     2.352000000
H    -4.506000000    -3.525000000     2.351000000
H    -3.406000000    -2.762000000     3.057000000
O     0.703000000    -2.100000000     2.958000000
H     0.369000000    -2.574000000     2.196000000
H     1.638000000    -1.994000000     2.783000000
