161
-3034.52714
C     0.964000000    -0.364000000     1.076000000
H     1.729000000    -0.753000000     1.743000000
C     1.240000000    -0.572000000    -0.312000000
H     2.081000000    -1.166000000    -0.661000000
C     0.287000000    -0.132000000    -1.262000000
C     0.230000000    -0.707000000    -2.622000000
H     1.219000000    -1.029000000    -2.954000000
H    -0.425000000    -1.579000000    -2.559000000
H    -0.084000000     0.018000000    -3.375000000
C    -0.827000000     0.578000000    -0.790000000
H    -1.606000000     0.872000000    -1.489000000
C    -1.062000000     0.817000000     0.584000000
H    -2.017000000     1.271000000     0.834000000
C    -0.194000000     0.318000000     1.538000000
C    -0.451000000     0.645000000     3.013000000
O    -1.486000000     1.213000000     3.319000000
O     0.408000000     0.572000000     3.910000000
O    -2.469000000    -5.350000000    -3.777000000
H    -1.681000000    -5.140000000    -4.278000000
H    -2.194000000    -5.293000000    -2.862000000
O     0.265000000    -1.556000000     5.757000000
H     0.156000000    -0.957000000     5.019000000
H     0.660000000    -1.020000000     6.445000000
O    -1.923000000    -0.601000000     8.252000000
H    -1.694000000    -0.137000000     7.446000000
H    -1.481000000    -0.109000000     8.944000000
O    -1.247000000    -3.495000000     1.893000000
H    -0.589000000    -2.855000000     2.164000000
H    -1.435000000    -3.275000000     0.981000000
O    -1.705000000     1.063000000     6.129000000
H    -1.633000000     1.966000000     6.438000000
H    -1.561000000     1.122000000     5.184000000
O    -0.330000000     2.329000000    -4.761000000
H    -1.209000000     2.395000000    -4.388000000
H    -0.463000000     2.408000000    -5.705000000
O    -3.699000000     4.850000000    -3.211000000
H    -3.042000000     4.726000000    -2.526000000
H    -4.104000000     5.692000000    -3.004000000
O     1.119000000     2.828000000     5.479000000
H     0.905000000     1.986000000     5.078000000
H     1.227000000     3.425000000     4.739000000
O    -5.345000000    -2.145000000     4.239000000
H    -4.480000000    -1.819000000     4.485000000
H    -5.186000000    -2.692000000     3.470000000
O    -5.836000000     3.209000000    -3.001000000
H    -5.417000000     2.368000000    -3.186000000
H    -5.160000000     3.860000000    -3.186000000
O     3.592000000     1.424000000    -2.953000000
H     2.964000000     0.718000000    -3.104000000
H     4.304000000     1.248000000    -3.568000000
O    -1.749000000    -2.446000000    -0.585000000
H    -1.191000000    -1.671000000    -0.510000000
H    -2.312000000    -2.263000000    -1.338000000
O    -1.453000000     1.885000000    -7.156000000
H    -0.600000000     1.477000000    -7.300000000
H    -1.987000000     1.193000000    -6.766000000
O     4.017000000     0.480000000     7.316000000
H     3.198000000     0.107000000     7.642000000
H     3.977000000     0.353000000     6.368000000
O     3.376000000     0.265000000     3.988000000
H     2.431000000     0.411000000     4.035000000
H     3.464000000    -0.661000000     3.760000000
O     2.477000000    -2.036000000    -7.566000000
H     3.188000000    -2.505000000    -7.130000000
H     2.454000000    -1.182000000    -7.134000000
O    -3.013000000    -1.191000000     5.168000000
H    -2.515000000    -0.449000000     4.825000000
H    -3.080000000    -1.022000000     6.107000000
O     2.915000000    -0.292000000    -5.498000000
H     2.865000000     0.594000000    -5.857000000
H     3.847000000    -0.510000000    -5.527000000
O     5.755000000     1.021000000     0.985000000
H     5.359000000     1.639000000     0.371000000
H     6.421000000     1.533000000     1.444000000
O     1.549000000     4.476000000     3.280000000
H     2.012000000     3.888000000     2.684000000
H     0.646000000     4.477000000     2.962000000
O    -3.919000000    -2.175000000    -2.338000000
H    -4.076000000    -2.880000000    -2.967000000
H    -3.614000000    -1.441000000    -2.871000000
O     2.001000000     2.652000000     8.004000000
H     2.922000000     2.749000000     7.762000000
H     1.520000000     2.849000000     7.200000000
O     0.835000000    -5.345000000    -0.135000000
H     1.367000000    -4.741000000     0.383000000
H     1.388000000    -5.571000000    -0.883000000
O     5.679000000    -1.949000000    -2.703000000
H     6.163000000    -2.755000000    -2.879000000
H     6.192000000    -1.263000000    -3.130000000
O     3.468000000    -2.465000000     3.631000000
H     3.188000000    -3.136000000     3.009000000
H     3.002000000    -2.679000000     4.439000000
O    -1.000000000    -4.096000000     6.356000000
H    -1.776000000    -4.155000000     5.798000000
H    -0.573000000    -3.283000000     6.087000000
O     5.284000000     2.363000000     4.065000000
H     4.581000000     1.762000000     3.820000000
H     4.962000000     2.801000000     4.853000000
O     6.256000000    -1.988000000     3.983000000
H     5.344000000    -2.278000000     3.953000000
H     6.375000000    -1.668000000     4.877000000
O     2.877000000     2.910000000     1.322000000
H     3.251000000     2.127000000     1.723000000
H     3.521000000     3.174000000     0.664000000
O     4.456000000     2.984000000    -0.952000000
H     5.335000000     2.721000000    -1.225000000
H     3.878000000     2.620000000    -1.623000000
O    -2.647000000    -0.370000000    -3.966000000
H    -1.889000000    -0.824000000    -4.333000000
H    -2.552000000     0.534000000    -4.265000000
O    -6.188000000     2.665000000     4.807000000
H    -6.875000000     2.103000000     4.450000000
H    -5.450000000     2.553000000     4.208000000
O     2.953000000    -3.756000000     0.987000000
H     3.174000000    -2.961000000     0.503000000
H     3.525000000    -4.429000000     0.617000000
O    -1.211000000     3.764000000     6.919000000
H    -0.331000000     3.873000000     6.558000000
H    -1.730000000     4.448000000     6.495000000
O     1.544000000     3.871000000    -3.652000000
H     0.774000000     3.495000000    -4.077000000
H     1.804000000     3.216000000    -3.004000000
O     2.941000000    -5.480000000    -1.838000000
H     2.715000000    -6.210000000    -2.414000000
H     2.846000000    -4.703000000    -2.388000000
O     1.133000000     1.346000000    -7.240000000
H     1.842000000     1.926000000    -6.960000000
H     1.292000000     1.207000000    -8.173000000
O     0.558000000     3.459000000     0.053000000
H     1.335000000     3.307000000     0.592000000
H    -0.105000000     2.874000000     0.420000000
O    -4.238000000     1.960000000     2.919000000
H    -4.403000000     1.152000000     2.433000000
H    -3.293000000     1.961000000     3.070000000
O    -1.512000000     4.832000000    -1.104000000
H    -0.734000000     4.348000000    -0.827000000
H    -2.053000000     4.888000000    -0.316000000
O    -1.520000000    -5.249000000    -1.301000000
H    -0.704000000    -5.484000000    -0.858000000
H    -1.785000000    -4.425000000    -0.894000000
O    -3.025000000     2.351000000    -4.300000000
H    -3.544000000     2.337000000    -5.105000000
H    -3.179000000     3.220000000    -3.930000000
O     4.566000000    -1.539000000     0.056000000
H     4.860000000    -0.670000000     0.330000000
H     4.909000000    -1.638000000    -0.832000000
O    -0.418000000    -0.786000000    -5.945000000
H     0.382000000    -0.261000000    -5.940000000
H    -0.128000000    -1.664000000    -6.193000000
O    -6.335000000     0.017000000     1.511000000
H    -5.486000000    -0.395000000     1.352000000
H    -6.482000000     0.568000000     0.742000000
O     2.792000000    -2.682000000    -3.822000000
H     3.475000000    -2.306000000    -3.267000000
H     2.723000000    -2.077000000    -4.561000000
O    -1.328000000     3.719000000     2.445000000
H    -2.182000000     3.893000000     2.050000000
H    -1.407000000     2.837000000     2.808000000
O    -4.272000000    -1.381000000     0.831000000
H    -3.507000000    -1.951000000     0.759000000
H    -4.963000000    -1.847000000     0.360000000
