161
-3065.05995
C    -0.010000000    -0.724000000     1.280000000
H     0.056000000    -1.345000000     2.170000000
C     0.389000000    -1.275000000     0.057000000
H     0.688000000    -2.318000000     0.124000000
C     0.439000000    -0.401000000    -1.067000000
C     0.791000000    -0.975000000    -2.393000000
H     0.924000000    -0.272000000    -3.218000000
H     1.718000000    -1.546000000    -2.466000000
H    -0.006000000    -1.668000000    -2.673000000
C     0.105000000     0.933000000    -0.967000000
H     0.168000000     1.663000000    -1.770000000
C    -0.415000000     1.435000000     0.214000000
H    -0.706000000     2.480000000     0.278000000
C    -0.524000000     0.597000000     1.328000000
C    -1.051000000     1.027000000     2.643000000
O    -1.355000000     2.171000000     2.898000000
O    -1.205000000     0.218000000     3.569000000
O    -4.565000000     1.639000000    -3.919000000
H    -4.199000000     2.205000000    -3.239000000
H    -5.118000000     1.019000000    -3.443000000
O     0.371000000     3.160000000     4.929000000
H     0.910000000     2.436000000     5.247000000
H    -0.124000000     2.787000000     4.199000000
O    -0.637000000    -6.738000000    -2.542000000
H    -0.028000000    -6.346000000    -3.168000000
H    -0.124000000    -6.842000000    -1.741000000
O    -5.121000000    -2.067000000     4.656000000
H    -5.961000000    -2.472000000     4.441000000
H    -5.256000000    -1.133000000     4.495000000
O     2.498000000     5.204000000     3.585000000
H     2.039000000     4.944000000     4.384000000
H     2.205000000     6.100000000     3.422000000
O     3.408000000    -3.558000000    -0.716000000
H     2.878000000    -4.204000000    -0.249000000
H     3.437000000    -2.803000000    -0.129000000
O    -4.375000000    -0.213000000     2.412000000
H    -4.175000000     0.720000000     2.489000000
H    -3.771000000    -0.532000000     1.741000000
O    -1.068000000     2.713000000    -3.702000000
H    -1.988000000     2.917000000    -3.536000000
H    -0.593000000     3.486000000    -3.398000000
O     0.424000000     4.105000000     1.962000000
H    -0.139000000     3.422000000     2.326000000
H     1.235000000     4.041000000     2.466000000
O    -6.243000000     0.505000000     4.891000000
H    -5.690000000     0.979000000     4.270000000
H    -7.134000000     0.632000000     4.564000000
O    -1.509000000     0.368000000     6.170000000
H    -1.185000000     0.136000000     5.300000000
H    -2.359000000     0.777000000     6.007000000
O     3.129000000     3.262000000    -3.577000000
H     2.470000000     3.341000000    -4.267000000
H     3.157000000     2.326000000    -3.379000000
O     3.096000000    -4.204000000    -3.339000000
H     2.968000000    -3.665000000    -2.559000000
H     3.940000000    -3.922000000    -3.690000000
O    -4.261000000    -3.825000000    -2.441000000
H    -3.703000000    -3.546000000    -1.715000000
H    -5.138000000    -3.883000000    -2.061000000
O     1.154000000    -0.993000000     7.976000000
H     0.690000000    -0.494000000     7.303000000
H     1.509000000    -1.750000000     7.511000000
O    -4.069000000     1.495000000     0.044000000
H    -4.087000000     2.354000000     0.464000000
H    -4.973000000     1.343000000    -0.231000000
O    -3.803000000     4.034000000    -2.942000000
H    -4.714000000     3.809000000    -2.754000000
H    -3.423000000     4.231000000    -2.086000000
O    -3.950000000     3.864000000     1.674000000
H    -4.128000000     4.800000000     1.772000000
H    -3.756000000     3.563000000     2.562000000
O     1.557000000    -5.335000000     3.662000000
H     0.925000000    -4.764000000     4.099000000
H     1.167000000    -6.207000000     3.713000000
O    -2.344000000    -2.204000000     3.707000000
H    -3.099000000    -2.182000000     4.295000000
H    -2.077000000    -1.289000000     3.625000000
O     3.927000000     0.593000000    -4.064000000
H     4.671000000     0.100000000    -4.409000000
H     3.206000000     0.387000000    -4.659000000
O    -2.702000000    -1.502000000     7.835000000
H    -3.025000000    -2.399000000     7.751000000
H    -2.291000000    -1.316000000     6.991000000
O     1.615000000    -5.319000000     0.693000000
H     1.498000000    -6.243000000     0.470000000
H     1.467000000    -5.280000000     1.638000000
O    -0.474000000    -3.862000000     4.997000000
H    -1.065000000    -3.413000000     4.393000000
H    -1.049000000    -4.224000000     5.671000000
O     4.285000000     0.528000000    -1.470000000
H     4.410000000     0.797000000    -2.381000000
H     3.523000000    -0.050000000    -1.494000000
O    -1.756000000    -1.500000000    -6.537000000
H    -1.196000000    -1.154000000    -7.232000000
H    -1.862000000    -2.427000000    -6.755000000
O    -3.370000000     2.615000000     6.886000000
H    -2.579000000     3.155000000     6.899000000
H    -3.591000000     2.493000000     7.810000000
O     6.207000000    -2.073000000    -0.650000000
H     5.700000000    -1.269000000    -0.533000000
H     5.556000000    -2.774000000    -0.611000000
O    -3.132000000    -4.575000000     1.807000000
H    -3.027000000    -3.794000000     2.350000000
H    -2.893000000    -4.288000000     0.926000000
O     5.255000000    -3.219000000    -4.653000000
H     5.290000000    -3.506000000    -5.565000000
H     5.530000000    -2.303000000    -4.679000000
O     1.949000000     4.484000000    -1.494000000
H     2.491000000     4.319000000    -0.723000000
H     2.321000000     3.922000000    -2.173000000
O    -2.313000000     4.956000000     3.536000000
H    -1.736000000     5.481000000     4.091000000
H    -1.861000000     4.117000000     3.445000000
O     2.791000000     1.036000000     2.595000000
H     3.361000000     1.629000000     3.086000000
H     2.764000000     1.405000000     1.713000000
O     3.903000000    -1.081000000     0.875000000
H     4.588000000    -0.436000000     1.051000000
H     3.119000000    -0.559000000     0.708000000
O    -3.711000000     2.054000000     4.144000000
H    -3.642000000     2.425000000     5.024000000
H    -2.809000000     1.839000000     3.905000000
O     2.962000000    -2.247000000     5.765000000
H     2.372000000    -1.969000000     5.065000000
H     2.540000000    -3.019000000     6.142000000
O     0.815000000     2.340000000    -5.560000000
H     0.605000000     2.700000000    -6.422000000
H     0.049000000     2.540000000    -5.023000000
O     0.356000000     5.319000000    -3.450000000
H     0.804000000     5.364000000    -2.606000000
H    -0.109000000     6.153000000    -3.519000000
O     3.694000000    -6.407000000    -1.698000000
H     3.378000000    -5.689000000    -2.246000000
H     4.219000000    -5.980000000    -1.022000000
O    -2.293000000    -3.359000000    -0.476000000
H    -1.361000000    -3.467000000    -0.288000000
H    -2.458000000    -2.426000000    -0.342000000
O     2.131000000     0.167000000    -6.035000000
H     1.682000000     0.949000000    -5.713000000
H     1.541000000    -0.192000000    -6.698000000
O     1.187000000    -0.329000000     4.322000000
H     1.660000000     0.155000000     3.645000000
H     0.265000000    -0.246000000     4.076000000
O     0.791000000    -5.051000000    -4.387000000
H     0.271000000    -4.279000000    -4.613000000
H     1.666000000    -4.707000000    -4.208000000
O    -2.814000000     4.843000000    -0.743000000
H    -1.873000000     5.015000000    -0.702000000
H    -3.037000000     4.515000000     0.128000000
O    -0.646000000     1.064000000     8.678000000
H    -1.061000000     0.847000000     7.843000000
H     0.166000000     0.558000000     8.681000000
O    -0.168000000     5.964000000     0.229000000
H    -0.006000000     5.425000000     1.003000000
H     0.676000000     5.998000000    -0.222000000
O    -2.731000000    -0.617000000    -0.825000000
H    -1.841000000    -0.307000000    -0.991000000
H    -3.213000000     0.168000000    -0.564000000
O    -0.925000000     4.200000000     7.523000000
H    -0.525000000     4.965000000     7.937000000
H    -0.414000000     4.064000000     6.726000000
