161
-3054.38151
C     0.235000000    -1.394000000     0.430000000
H     0.583000000    -2.405000000     0.627000000
C    -0.346000000    -1.042000000    -0.794000000
H    -0.566000000    -1.792000000    -1.548000000
C    -0.443000000     0.297000000    -1.074000000
C    -1.152000000     0.725000000    -2.373000000
H    -1.985000000     1.396000000    -2.158000000
H    -0.391000000     1.251000000    -2.953000000
H    -1.580000000    -0.170000000    -2.831000000
C    -0.122000000     1.251000000    -0.142000000
H    -0.234000000     2.289000000    -0.443000000
C     0.256000000     0.919000000     1.160000000
H     0.548000000     1.717000000     1.838000000
C     0.627000000    -0.406000000     1.407000000
C     1.353000000    -0.794000000     2.576000000
O     1.193000000    -0.090000000     3.603000000
O     2.019000000    -1.750000000     2.672000000
O    -3.785000000    -2.118000000    -2.111000000
H    -4.408000000    -2.564000000    -1.537000000
H    -3.321000000    -2.826000000    -2.557000000
O     4.296000000    -2.257000000     3.993000000
H     3.403000000    -2.072000000     3.704000000
H     4.776000000    -2.439000000     3.185000000
O     3.017000000     1.854000000     3.725000000
H     2.333000000     1.203000000     3.881000000
H     3.340000000     1.655000000     2.846000000
O    -1.183000000    -5.265000000    -0.625000000
H    -1.051000000    -5.801000000     0.157000000
H    -2.132000000    -5.255000000    -0.750000000
O     0.997000000    -3.642000000     4.155000000
H     1.499000000    -3.025000000     3.622000000
H     0.892000000    -3.200000000     4.997000000
O     1.988000000    -0.069000000     6.046000000
H     1.316000000    -0.005000000     6.724000000
H     1.508000000     0.029000000     5.223000000
O    -0.199000000     5.250000000     0.995000000
H    -0.150000000     5.871000000     1.722000000
H    -0.400000000     4.411000000     1.410000000
O     1.518000000    -4.508000000    -1.509000000
H     1.855000000    -4.098000000    -0.712000000
H     0.588000000    -4.646000000    -1.332000000
O     0.644000000     2.964000000     4.899000000
H     1.390000000     2.633000000     4.400000000
H     0.713000000     3.916000000     4.831000000
O    -2.073000000    -2.844000000     2.459000000
H    -2.205000000    -2.055000000     1.934000000
H    -1.546000000    -2.553000000     3.203000000
O     2.430000000     3.704000000    -1.400000000
H     2.906000000     3.768000000    -2.227000000
H     1.649000000     3.192000000    -1.611000000
O    -1.653000000    -2.913000000    -3.636000000
H    -1.111000000    -2.131000000    -3.531000000
H    -2.281000000    -2.679000000    -4.319000000
O    -1.929000000     1.880000000     5.741000000
H    -1.098000000     2.354000000     5.755000000
H    -1.780000000     1.152000000     5.138000000
O     5.412000000    -2.941000000     1.362000000
H     6.219000000    -3.444000000     1.254000000
H     5.455000000    -2.271000000     0.680000000
O     0.341000000     3.561000000    -5.325000000
H    -0.030000000     3.988000000    -4.553000000
H    -0.397000000     3.102000000    -5.724000000
O    -1.089000000    -5.362000000    -3.355000000
H    -1.075000000    -4.405000000    -3.387000000
H    -0.988000000    -5.572000000    -2.426000000
O     2.072000000    -3.251000000    -3.922000000
H     1.820000000    -3.718000000    -3.125000000
H     1.251000000    -3.137000000    -4.401000000
O     1.735000000     0.833000000    -5.654000000
H     1.589000000     0.410000000    -6.500000000
H     1.272000000     1.668000000    -5.720000000
O     3.135000000    -2.544000000     7.353000000
H     2.883000000    -2.042000000     6.578000000
H     3.418000000    -1.883000000     7.985000000
O    -5.773000000     0.001000000    -2.138000000
H    -6.125000000     0.082000000    -3.025000000
H    -5.116000000    -0.692000000    -2.204000000
O    -2.210000000     2.123000000    -5.927000000
H    -2.627000000     2.798000000    -6.462000000
H    -2.702000000     2.130000000    -5.105000000
O    -3.261000000     1.582000000     2.596000000
H    -2.787000000     0.852000000     2.995000000
H    -3.145000000     1.457000000     1.654000000
O    -1.208000000     3.401000000     2.830000000
H    -1.871000000     2.714000000     2.898000000
H    -0.605000000     3.224000000     3.552000000
O    -2.084000000    -5.349000000     4.101000000
H    -2.483000000    -4.484000000     4.010000000
H    -1.262000000    -5.286000000     3.615000000
O     0.142000000    -5.560000000     2.553000000
H     0.816000000    -5.968000000     2.009000000
H     0.577000000    -4.801000000     2.944000000
O     4.558000000     4.359000000     3.474000000
H     3.979000000     4.348000000     2.712000000
H     4.485000000     3.480000000     3.844000000
O    -2.047000000     4.769000000    -3.692000000
H    -2.658000000     4.062000000    -3.486000000
H    -1.419000000     4.762000000    -2.969000000
O    -1.325000000    -0.224000000     4.118000000
H    -1.314000000    -0.960000000     4.730000000
H    -0.403000000    -0.069000000     3.913000000
O    -3.224000000    -0.337000000     0.570000000
H    -4.000000000    -0.810000000     0.269000000
H    -2.692000000    -0.224000000    -0.218000000
O     2.693000000     4.454000000    -3.921000000
H     2.289000000     5.315000000    -3.806000000
H     2.108000000     3.995000000    -4.524000000
O     6.296000000    -3.330000000     5.338000000
H     6.127000000    -4.247000000     5.554000000
H     5.438000000    -2.976000000     5.106000000
O     5.367000000    -1.262000000    -0.828000000
H     4.483000000    -0.901000000    -0.758000000
H     5.399000000    -1.649000000    -1.703000000
O     4.284000000     1.378000000     1.313000000
H     4.181000000     0.749000000     0.599000000
H     4.387000000     2.223000000     0.874000000
O     0.151000000     0.936000000     7.775000000
H     0.805000000     1.575000000     8.060000000
H    -0.251000000     0.626000000     8.587000000
O     3.123000000     5.029000000     1.119000000
H     2.260000000     5.440000000     1.163000000
H     3.161000000     4.645000000     0.243000000
O     2.042000000    -6.578000000     0.712000000
H     2.008000000    -5.801000000     0.154000000
H     2.933000000    -6.583000000     1.061000000
O     2.842000000    -3.852000000     0.928000000
H     2.359000000    -3.194000000     1.428000000
H     3.756000000    -3.720000000     1.178000000
O    -4.311000000     0.668000000    -5.062000000
H    -3.619000000     0.385000000    -5.660000000
H    -5.005000000     0.020000000    -5.174000000
O    -3.809000000     2.803000000    -3.568000000
H    -4.598000000     3.178000000    -3.178000000
H    -4.067000000     1.919000000    -3.830000000
O    -3.248000000    -2.472000000    -5.989000000
H    -4.101000000    -2.733000000    -6.336000000
H    -2.614000000    -2.878000000    -6.580000000
O     0.046000000     4.788000000    -1.851000000
H     0.652000000     5.329000000    -2.355000000
H     0.018000000     5.200000000    -0.987000000
O     4.680000000    -5.374000000    -1.026000000
H     4.948000000    -5.558000000    -0.126000000
H     3.763000000    -5.109000000    -0.954000000
O     2.974000000     1.535000000     7.827000000
H     3.021000000     0.856000000     8.500000000
H     2.890000000     1.052000000     7.005000000
O     2.246000000    -0.424000000    -3.500000000
H     1.972000000    -0.033000000    -4.330000000
H     2.291000000    -1.363000000    -3.682000000
O     2.982000000     0.048000000    -0.879000000
H     2.336000000     0.409000000    -0.272000000
H     2.501000000    -0.072000000    -1.697000000
O     4.784000000    -0.016000000     5.488000000
H     4.706000000    -0.798000000     4.942000000
H     3.922000000     0.398000000     5.438000000
O    -3.794000000     4.918000000     1.489000000
H    -2.909000000     4.676000000     1.760000000
H    -3.666000000     5.601000000     0.831000000
O    -0.323000000    -1.910000000     6.444000000
H    -1.046000000    -2.498000000     6.225000000
H    -0.069000000    -2.162000000     7.332000000
