161
-3033.30065
C    -0.653000000    -1.093000000     0.696000000
H    -1.011000000    -1.967000000     1.234000000
C     0.705000000    -0.828000000     0.622000000
H     1.420000000    -1.436000000     1.171000000
C     1.208000000     0.318000000    -0.037000000
C     2.749000000     0.484000000    -0.133000000
H     3.007000000     0.814000000    -1.142000000
H     3.195000000     1.154000000     0.605000000
H     3.243000000    -0.474000000     0.045000000
C     0.314000000     1.177000000    -0.640000000
H     0.679000000     2.038000000    -1.193000000
C    -1.042000000     0.832000000    -0.578000000
H    -1.751000000     1.511000000    -1.045000000
C    -1.590000000    -0.243000000     0.133000000
C    -3.059000000    -0.674000000     0.107000000
O    -3.866000000     0.120000000    -0.312000000
O    -3.545000000    -1.734000000     0.461000000
O    -4.375000000    -0.541000000    -4.085000000
H    -3.519000000    -0.941000000    -4.240000000
H    -4.661000000    -0.246000000    -4.950000000
O    -1.095000000     3.933000000     1.377000000
H    -0.584000000     3.789000000     2.174000000
H    -1.857000000     3.363000000     1.476000000
O    -0.707000000     4.560000000    -1.335000000
H     0.234000000     4.412000000    -1.429000000
H    -0.868000000     4.491000000    -0.394000000
O     7.304000000     0.666000000    -4.195000000
H     7.347000000     0.617000000    -5.150000000
H     6.386000000     0.493000000    -3.987000000
O     2.275000000     4.243000000    -2.461000000
H     2.525000000     4.115000000    -1.546000000
H     2.224000000     3.358000000    -2.822000000
O     6.340000000     3.757000000    -0.804000000
H     6.426000000     4.202000000    -1.647000000
H     5.704000000     4.284000000    -0.318000000
O     5.685000000     2.407000000     2.251000000
H     4.746000000     2.370000000     2.434000000
H     5.845000000     1.665000000     1.669000000
O    -2.986000000     4.329000000    -3.095000000
H    -3.190000000     3.411000000    -3.272000000
H    -2.173000000     4.300000000    -2.589000000
O    -1.535000000    -4.629000000     1.952000000
H    -1.624000000    -3.781000000     1.518000000
H    -0.890000000    -5.101000000     1.426000000
O    -1.485000000    -3.759000000     4.656000000
H    -1.703000000    -4.574000000     4.206000000
H    -1.817000000    -3.070000000     4.080000000
O    -0.214000000    -6.212000000    -1.715000000
H    -0.398000000    -6.768000000    -0.957000000
H    -0.754000000    -5.434000000    -1.578000000
O    -4.036000000    -5.660000000     1.508000000
H    -4.085000000    -6.585000000     1.267000000
H    -3.219000000    -5.584000000     2.002000000
O     0.342000000     3.714000000     3.822000000
H     1.181000000     3.255000000     3.787000000
H     0.501000000     4.459000000     4.402000000
O    -8.044000000    -1.799000000    -0.303000000
H    -7.336000000    -2.110000000    -0.867000000
H    -7.829000000    -0.882000000    -0.131000000
O    -5.588000000    -1.946000000    -1.918000000
H    -5.020000000    -1.312000000    -2.356000000
H    -5.144000000    -2.134000000    -1.091000000
O     1.617000000     6.765000000    -3.425000000
H     1.607000000     5.858000000    -3.121000000
H     2.115000000     7.236000000    -2.757000000
O    -4.721000000    -4.729000000    -1.057000000
H    -5.621000000    -4.426000000    -1.175000000
H    -4.746000000    -5.247000000    -0.253000000
O    -1.801000000    -3.924000000    -0.811000000
H    -2.590000000    -4.461000000    -0.886000000
H    -2.126000000    -3.049000000    -0.598000000
O     2.596000000     4.059000000     0.293000000
H     3.036000000     4.887000000     0.485000000
H     2.694000000     3.544000000     1.094000000
O     6.244000000    -1.792000000     1.510000000
H     6.809000000    -1.183000000     1.034000000
H     6.176000000    -2.555000000     0.935000000
O     1.577000000     0.127000000     4.049000000
H     1.492000000    -0.297000000     4.903000000
H     2.401000000    -0.208000000     3.696000000
O    -5.155000000     4.121000000    -0.820000000
H    -4.617000000     4.179000000    -1.610000000
H    -4.611000000     3.642000000    -0.195000000
O     1.370000000    -3.644000000     4.639000000
H     1.545000000    -2.986000000     5.311000000
H     0.418000000    -3.747000000     4.648000000
O     5.817000000    -0.527000000    -0.993000000
H     5.728000000    -0.786000000    -1.910000000
H     5.296000000    -1.168000000    -0.510000000
O     7.553000000     1.250000000     0.091000000
H     6.928000000     0.703000000    -0.386000000
H     7.177000000     2.129000000     0.056000000
O     2.928000000    -3.728000000     2.245000000
H     2.536000000    -3.385000000     3.048000000
H     3.865000000    -3.560000000     2.345000000
O    -2.358000000     2.994000000     4.186000000
H    -2.222000000     2.163000000     3.732000000
H    -1.599000000     3.525000000     3.946000000
O    -6.610000000     0.289000000     0.528000000
H    -5.732000000     0.119000000     0.186000000
H    -6.559000000     0.044000000     1.452000000
O     5.523000000     4.937000000     3.224000000
H     5.952000000     5.089000000     4.066000000
H     5.624000000     3.997000000     3.069000000
O     1.067000000    -5.867000000     2.833000000
H     0.398000000    -6.284000000     3.376000000
H     1.057000000    -4.949000000     3.104000000
O    -4.159000000     2.498000000     1.183000000
H    -4.477000000     2.337000000     2.071000000
H    -3.853000000     1.643000000     0.880000000
O    -3.892000000     1.590000000    -2.540000000
H    -4.024000000     1.251000000    -1.654000000
H    -4.103000000     0.852000000    -3.112000000
O     6.241000000    -3.615000000    -0.564000000
H     5.610000000    -4.023000000    -1.156000000
H     6.833000000    -3.132000000    -1.140000000
O     1.495000000     1.603000000    -3.464000000
H     0.921000000     2.138000000    -4.012000000
H     1.041000000     0.763000000    -3.390000000
O    -4.983000000     1.303000000     3.460000000
H    -5.864000000     0.973000000     3.640000000
H    -4.400000000     0.636000000     3.822000000
O     0.237000000    -0.845000000    -2.826000000
H     0.669000000    -1.251000000    -2.075000000
H    -0.240000000    -0.102000000    -2.456000000
O     3.734000000     1.224000000    -5.204000000
H     3.386000000     1.280000000    -4.314000000
H     3.646000000     2.112000000    -5.552000000
O    -0.125000000     2.977000000    -5.095000000
H    -0.610000000     3.797000000    -5.187000000
H    -0.244000000     2.533000000    -5.935000000
O     4.906000000    -1.093000000    -3.585000000
H     5.054000000    -1.951000000    -3.983000000
H     4.507000000    -0.571000000    -4.282000000
O    -2.037000000    -1.325000000    -4.954000000
H    -1.955000000    -0.901000000    -5.808000000
H    -1.140000000    -1.374000000    -4.624000000
O     4.571000000    -0.419000000     3.016000000
H     5.016000000    -1.055000000     2.456000000
H     5.034000000    -0.469000000     3.852000000
O     2.776000000     2.706000000     3.295000000
H     3.170000000     3.129000000     4.058000000
H     2.385000000     1.904000000     3.642000000
O    -1.100000000     0.603000000     3.459000000
H    -0.488000000     0.600000000     4.194000000
H    -0.630000000     0.161000000     2.752000000
O     2.843000000    -6.171000000     0.890000000
H     2.636000000    -6.493000000     1.767000000
H     2.890000000    -5.220000000     0.988000000
O    -7.533000000    -3.833000000     2.408000000
H    -6.675000000    -3.413000000     2.344000000
H    -7.946000000    -3.420000000     3.167000000
O    -7.388000000     2.175000000    -1.326000000
H    -6.654000000     2.782000000    -1.427000000
H    -7.115000000     1.585000000    -0.623000000
O    -4.996000000    -3.008000000     1.978000000
H    -4.525000000    -3.840000000     1.934000000
H    -4.509000000    -2.426000000     1.395000000
O    -4.380000000    -1.446000000     4.290000000
H    -4.536000000    -2.067000000     3.579000000
H    -4.666000000    -1.907000000     5.079000000
