161
-3029.89373
C     1.338000000    -0.294000000     0.620000000
H     2.279000000    -0.662000000     1.022000000
C     0.753000000    -0.940000000    -0.507000000
H     1.301000000    -1.546000000    -1.224000000
C    -0.528000000    -0.582000000    -0.911000000
C    -1.166000000    -1.324000000    -2.141000000
H    -1.822000000    -0.749000000    -2.798000000
H    -0.398000000    -1.841000000    -2.720000000
H    -1.763000000    -2.162000000    -1.773000000
C    -1.140000000     0.483000000    -0.380000000
H    -2.090000000     0.806000000    -0.799000000
C    -0.564000000     1.148000000     0.723000000
H    -1.152000000     1.918000000     1.215000000
C     0.653000000     0.769000000     1.246000000
C     1.271000000     1.468000000     2.488000000
O     0.581000000     1.994000000     3.306000000
O     2.445000000     1.522000000     2.637000000
O    -4.261000000    -0.322000000    -0.761000000
H    -3.823000000     0.184000000    -0.076000000
H    -4.095000000    -1.235000000    -0.527000000
O     4.888000000     0.832000000     1.512000000
H     4.025000000     1.054000000     1.861000000
H     4.833000000     1.049000000     0.581000000
O     5.015000000     2.058000000    -0.905000000
H     4.808000000     2.907000000    -0.516000000
H     4.418000000     1.983000000    -1.649000000
O    -1.905000000    -4.871000000     0.579000000
H    -2.241000000    -4.779000000     1.471000000
H    -1.636000000    -5.787000000     0.518000000
O     2.954000000    -2.165000000     3.617000000
H     2.994000000    -1.578000000     4.372000000
H     2.079000000    -2.030000000     3.255000000
O    -3.171000000     4.231000000    -0.465000000
H    -3.795000000     3.836000000    -1.073000000
H    -2.327000000     4.165000000    -0.910000000
O     2.977000000     0.269000000     5.006000000
H     2.133000000     0.350000000     5.451000000
H     2.885000000     0.805000000     4.219000000
O     0.890000000     5.298000000    -0.032000000
H     1.441000000     5.783000000     0.582000000
H     0.014000000     5.336000000     0.352000000
O    -4.245000000    -4.996000000    -2.722000000
H    -3.295000000    -4.963000000    -2.611000000
H    -4.500000000    -4.087000000    -2.883000000
O     4.792000000    -2.818000000    -1.282000000
H     4.992000000    -2.526000000    -0.393000000
H     4.153000000    -3.522000000    -1.165000000
O     2.227000000    -4.844000000     2.810000000
H     2.443000000    -4.007000000     3.221000000
H     2.435000000    -4.717000000     1.884000000
O    -2.272000000    -2.824000000    -6.613000000
H    -2.100000000    -2.093000000    -6.019000000
H    -1.541000000    -2.809000000    -7.230000000
O     1.005000000     5.404000000     6.669000000
H     1.942000000     5.244000000     6.783000000
H     0.753000000     4.840000000     5.938000000
O    -2.640000000     4.844000000     3.771000000
H    -3.075000000     4.078000000     4.147000000
H    -2.461000000     5.410000000     4.522000000
O    -4.935000000    -3.138000000    -6.086000000
H    -4.062000000    -2.936000000    -6.423000000
H    -5.073000000    -2.504000000    -5.383000000
O     7.689000000     1.731000000     2.152000000
H     8.232000000     0.950000000     2.047000000
H     6.806000000     1.392000000     2.293000000
O    -1.938000000     0.628000000     4.013000000
H    -2.613000000     1.263000000     4.254000000
H    -1.211000000     1.162000000     3.694000000
O     0.727000000    -3.890000000     0.273000000
H    -0.064000000    -4.386000000     0.064000000
H     0.420000000    -2.993000000     0.406000000
O    -1.744000000    -4.367000000    -3.711000000
H    -1.767000000    -3.580000000    -3.167000000
H    -1.745000000    -4.037000000    -4.610000000
O     3.627000000    -1.242000000    -3.149000000
H     3.925000000    -1.795000000    -2.426000000
H     3.046000000    -1.808000000    -3.658000000
O    -0.893000000     0.771000000    -7.429000000
H    -0.782000000     0.013000000    -8.003000000
H    -1.193000000     0.401000000    -6.599000000
O    -5.687000000     2.135000000    -1.276000000
H    -5.313000000     1.254000000    -1.276000000
H    -5.343000000     2.540000000    -2.073000000
O    -0.568000000     1.792000000    -3.917000000
H    -0.856000000     1.857000000    -3.007000000
H    -0.338000000     2.689000000    -4.160000000
O     0.511000000     4.809000000     3.033000000
H     0.413000000     3.879000000     3.237000000
H    -0.336000000     5.194000000     3.257000000
O     2.316000000     7.002000000     2.236000000
H     1.722000000     6.291000000     2.477000000
H     2.899000000     7.093000000     2.989000000
O    -4.102000000     0.509000000     1.819000000
H    -4.868000000     1.059000000     1.651000000
H    -3.639000000     0.954000000     2.529000000
O     0.381000000     0.048000000     5.596000000
H    -0.384000000    -0.054000000     5.030000000
H     0.025000000     0.371000000     6.424000000
O     0.341000000    -2.839000000     2.993000000
H    -0.524000000    -2.434000000     2.943000000
H     0.294000000    -3.581000000     2.391000000
O    -0.848000000     3.764000000    -1.694000000
H    -0.516000000     4.386000000    -2.341000000
H    -0.178000000     3.748000000    -1.010000000
O     1.993000000     3.142000000     5.252000000
H     1.491000000     3.010000000     6.056000000
H     1.598000000     2.540000000     4.621000000
O    -2.268000000    -2.008000000     2.919000000
H    -3.147000000    -2.188000000     3.253000000
H    -2.092000000    -1.104000000     3.181000000
O     2.135000000    -3.410000000    -4.749000000
H     2.305000000    -2.869000000    -5.520000000
H     1.593000000    -4.129000000    -5.076000000
O     5.825000000     0.666000000     4.828000000
H     4.884000000     0.615000000     4.997000000
H     5.903000000     1.270000000     4.090000000
O    -3.353000000    -2.424000000     0.399000000
H    -3.358000000    -3.375000000     0.289000000
H    -2.853000000    -2.278000000     1.202000000
O    -3.580000000     2.552000000     4.730000000
H    -3.660000000     2.967000000     5.588000000
H    -4.483000000     2.439000000     4.433000000
O     4.789000000     4.550000000     0.639000000
H     4.754000000     4.404000000     1.584000000
H     3.917000000     4.874000000     0.414000000
O     3.296000000    -5.261000000    -0.332000000
H     3.053000000    -6.183000000    -0.410000000
H     2.496000000    -4.783000000    -0.550000000
O    -5.255000000     4.856000000     1.293000000
H    -5.547000000     3.993000000     1.587000000
H    -4.583000000     4.671000000     0.637000000
O     5.537000000    -1.690000000     0.985000000
H     5.275000000    -0.860000000     1.383000000
H     5.838000000    -2.224000000     1.721000000
O    -4.792000000     1.408000000    -4.352000000
H    -5.628000000     1.682000000    -4.730000000
H    -4.565000000     2.108000000    -3.740000000
O    -4.578000000     3.910000000    -3.069000000
H    -5.500000000     4.014000000    -3.305000000
H    -4.227000000     4.800000000    -3.075000000
O    -2.009000000    -0.397000000    -5.331000000
H    -1.686000000     0.248000000    -4.701000000
H    -2.870000000    -0.068000000    -5.589000000
O     3.529000000     1.370000000    -3.440000000
H     2.973000000     1.570000000    -4.193000000
H     3.428000000     0.427000000    -3.311000000
O    -4.984000000    -2.346000000    -3.077000000
H    -5.927000000    -2.179000000    -3.066000000
H    -4.616000000    -1.682000000    -2.495000000
O     1.995000000     2.410000000    -0.875000000
H     1.472000000     2.302000000    -0.081000000
H     1.688000000     1.717000000    -1.460000000
O     4.109000000     3.811000000     3.030000000
H     3.863000000     2.987000000     2.609000000
H     3.432000000     3.952000000     3.692000000
O    -1.954000000     5.820000000     1.228000000
H    -2.344000000     5.285000000     0.537000000
H    -2.306000000     5.456000000     2.040000000
O    -0.491000000     3.078000000     7.194000000
H    -0.791000000     2.234000000     7.533000000
H    -0.587000000     3.680000000     7.932000000
