161
-3042.95516
C     1.322000000     0.302000000     0.541000000
H     2.358000000     0.318000000     0.869000000
C     0.958000000    -0.953000000    -0.031000000
H     1.620000000    -1.813000000    -0.087000000
C    -0.356000000    -1.030000000    -0.484000000
C    -0.833000000    -2.361000000    -1.103000000
H    -0.055000000    -2.843000000    -1.699000000
H    -1.034000000    -3.111000000    -0.336000000
H    -1.651000000    -2.203000000    -1.809000000
C    -1.238000000     0.027000000    -0.414000000
H    -2.266000000    -0.123000000    -0.732000000
C    -0.846000000     1.197000000     0.230000000
H    -1.493000000     2.069000000     0.265000000
C     0.472000000     1.413000000     0.576000000
C     0.887000000     2.687000000     1.224000000
O     0.052000000     3.521000000     1.573000000
O     2.105000000     2.905000000     1.413000000
O     6.077000000     0.683000000     4.466000000
H     5.241000000     1.077000000     4.215000000
H     6.073000000     0.702000000     5.423000000
O     3.768000000     2.286000000    -0.651000000
H     3.222000000     2.457000000     0.116000000
H     3.145000000     2.181000000    -1.370000000
O     4.311000000    -2.519000000    -0.077000000
H     4.039000000    -1.633000000    -0.319000000
H     4.615000000    -2.438000000     0.827000000
O     3.167000000    -2.254000000     4.049000000
H     2.409000000    -2.127000000     3.479000000
H     3.842000000    -2.614000000     3.473000000
O    -3.045000000    -0.190000000     1.919000000
H    -2.705000000    -0.424000000     1.055000000
H    -3.225000000     0.748000000     1.859000000
O    -3.221000000    -6.989000000     1.154000000
H    -2.269000000    -7.087000000     1.153000000
H    -3.367000000    -6.067000000     0.942000000
O    -4.444000000    -0.579000000    -4.732000000
H    -4.559000000    -1.313000000    -5.337000000
H    -3.938000000     0.064000000    -5.229000000
O    -2.378000000     2.964000000     2.960000000
H    -1.558000000     2.983000000     2.466000000
H    -2.658000000     3.878000000     2.995000000
O    -6.600000000     0.503000000    -0.300000000
H    -7.469000000     0.135000000    -0.457000000
H    -6.004000000    -0.073000000    -0.779000000
O    -2.604000000    -3.201000000     1.797000000
H    -3.379000000    -3.538000000     1.347000000
H    -2.741000000    -2.254000000     1.834000000
O    -5.388000000    -0.931000000    -2.030000000
H    -5.000000000    -0.474000000    -2.777000000
H    -5.347000000    -1.857000000    -2.268000000
O     3.162000000     4.129000000     5.209000000
H     2.276000000     4.462000000     5.353000000
H     3.678000000     4.907000000     4.998000000
O     3.360000000     1.694000000     3.727000000
H     2.918000000     1.955000000     2.919000000
H     3.341000000     2.479000000     4.275000000
O    -2.606000000    -4.610000000     4.102000000
H    -2.363000000    -3.984000000     4.784000000
H    -2.533000000    -4.115000000     3.286000000
O    -0.483000000     2.705000000    -3.392000000
H    -0.942000000     3.140000000    -2.674000000
H    -0.647000000     3.261000000    -4.153000000
O     2.844000000    -6.982000000    -1.108000000
H     3.106000000    -6.063000000    -1.044000000
H     3.556000000    -7.401000000    -1.591000000
O     0.058000000     8.373000000     2.397000000
H    -0.440000000     7.568000000     2.250000000
H     0.801000000     8.100000000     2.935000000
O    -0.354000000    -0.609000000     4.085000000
H     0.369000000    -0.230000000     4.585000000
H    -1.044000000     0.054000000     4.123000000
O     2.133000000     8.044000000     0.015000000
H     1.252000000     7.894000000    -0.329000000
H     2.401000000     7.195000000     0.366000000
O     1.412000000    -3.863000000    -4.854000000
H     1.619000000    -3.170000000    -4.227000000
H     0.579000000    -4.222000000    -4.548000000
O     1.197000000     0.975000000     5.563000000
H     1.678000000     1.264000000     4.788000000
H     1.789000000     0.360000000     5.997000000
O    -0.128000000    -0.388000000    -4.772000000
H    -0.420000000    -0.132000000    -3.897000000
H    -0.859000000    -0.158000000    -5.345000000
O    -4.625000000    -4.560000000     0.138000000
H    -5.388000000    -4.254000000     0.628000000
H    -4.704000000    -4.136000000    -0.717000000
O     1.669000000     1.265000000    -2.693000000
H     1.544000000     0.628000000    -1.988000000
H     0.839000000     1.740000000    -2.736000000
O     2.742000000     7.425000000     3.340000000
H     3.608000000     7.597000000     2.970000000
H     2.348000000     6.791000000     2.741000000
O    -0.159000000     7.065000000    -1.107000000
H    -0.271000000     7.487000000    -1.959000000
H    -0.586000000     6.214000000    -1.203000000
O    -0.995000000     4.279000000    -0.948000000
H    -0.771000000     3.977000000    -0.068000000
H    -1.900000000     4.581000000    -0.875000000
O     4.530000000    -0.174000000    -1.764000000
H     4.935000000     0.181000000    -2.555000000
H     4.646000000     0.512000000    -1.106000000
O    -0.215000000    -7.423000000     1.753000000
H    -0.304000000    -8.251000000     1.282000000
H     0.501000000    -6.970000000     1.307000000
O    -3.298000000     6.015000000     3.503000000
H    -4.226000000     5.825000000     3.365000000
H    -3.109000000     6.734000000     2.899000000
O     5.192000000     4.936000000     1.121000000
H     5.386000000     4.029000000     0.883000000
H     5.019000000     4.905000000     2.062000000
O     1.924000000     4.382000000    -1.743000000
H     2.320000000     5.230000000    -1.541000000
H     0.999000000     4.491000000    -1.524000000
O     6.343000000    -3.263000000    -1.831000000
H     5.550000000    -3.274000000    -1.295000000
H     7.054000000    -3.128000000    -1.204000000
O     0.462000000    -2.761000000     2.820000000
H     0.138000000    -2.626000000     1.930000000
H     0.177000000    -1.983000000     3.299000000
O    -4.319000000     1.899000000     0.019000000
H    -5.262000000     1.736000000    -0.018000000
H    -4.030000000     1.844000000    -0.892000000
O     2.098000000     5.625000000     1.443000000
H     2.674000000     4.860000000     1.451000000
H     1.215000000     5.261000000     1.499000000
O     0.266000000    -5.619000000    -3.041000000
H    -0.047000000    -6.470000000    -2.735000000
H     0.993000000    -5.407000000    -2.456000000
O    -4.268000000     1.452000000     4.137000000
H    -3.590000000     1.954000000     3.684000000
H    -3.849000000     0.617000000     4.345000000
O    -5.211000000    -3.826000000    -2.715000000
H    -5.991000000    -3.384000000    -3.050000000
H    -4.868000000    -4.310000000    -3.466000000
O    -3.626000000     1.510000000    -2.383000000
H    -3.992000000     1.951000000    -3.149000000
H    -3.068000000     0.822000000    -2.746000000
O     3.040000000    -4.034000000    -1.870000000
H     2.854000000    -3.260000000    -2.400000000
H     3.304000000    -3.684000000    -1.019000000
O    -5.462000000    -1.758000000     2.080000000
H    -4.732000000    -1.152000000     1.952000000
H    -5.410000000    -2.004000000     3.003000000
O     2.320000000    -1.787000000    -3.238000000
H     1.713000000    -1.287000000    -3.783000000
H     3.042000000    -1.182000000    -3.067000000
O    -3.765000000     4.681000000     0.151000000
H    -4.455000000     5.088000000     0.675000000
H    -3.742000000     3.772000000     0.450000000
O     6.487000000     2.528000000    -0.554000000
H     5.538000000     2.445000000    -0.650000000
H     6.689000000     2.045000000     0.248000000
O     1.001000000     6.013000000     5.272000000
H     0.558000000     5.985000000     4.424000000
H     0.930000000     6.926000000     5.550000000
O    -3.409000000    -5.457000000    -4.321000000
H    -3.717000000    -6.333000000    -4.552000000
H    -3.147000000    -5.529000000    -3.403000000
O    -0.495000000     5.619000000     3.024000000
H    -1.246000000     5.679000000     3.615000000
H    -0.570000000     4.751000000     2.629000000
