161
-3040.31325
C     0.689000000     0.672000000     1.057000000
H     1.304000000     1.062000000     1.864000000
C     1.132000000    -0.384000000     0.276000000
H     2.139000000    -0.721000000     0.510000000
C     0.350000000    -0.970000000    -0.730000000
C     0.981000000    -2.051000000    -1.548000000
H     0.685000000    -2.000000000    -2.598000000
H     2.038000000    -1.774000000    -1.542000000
H     0.971000000    -3.051000000    -1.108000000
C    -0.959000000    -0.653000000    -0.751000000
H    -1.727000000    -1.260000000    -1.225000000
C    -1.460000000     0.469000000    -0.040000000
H    -2.481000000     0.825000000    -0.152000000
C    -0.610000000     1.152000000     0.867000000
C    -0.955000000     2.483000000     1.587000000
O    -2.017000000     3.073000000     1.376000000
O    -0.082000000     3.133000000     2.165000000
O     3.462000000     2.501000000     0.158000000
H     3.677000000     2.765000000     1.053000000
H     2.512000000     2.601000000     0.100000000
O     0.465000000     2.234000000    -4.096000000
H    -0.336000000     1.843000000    -3.748000000
H     1.082000000     1.504000000    -4.154000000
O     1.842000000    -6.476000000    -5.640000000
H     2.648000000    -6.975000000    -5.509000000
H     2.115000000    -5.560000000    -5.577000000
O     0.024000000    -4.124000000     1.425000000
H    -0.352000000    -3.285000000     1.690000000
H     0.959000000    -3.945000000     1.318000000
O    -1.363000000     6.506000000    -0.651000000
H    -1.150000000     6.245000000    -1.547000000
H    -2.312000000     6.629000000    -0.657000000
O     6.478000000    -1.348000000    -1.272000000
H     6.693000000    -1.571000000    -0.367000000
H     6.908000000    -0.505000000    -1.420000000
O    -4.509000000    -0.876000000     0.968000000
H    -4.440000000    -0.416000000     1.805000000
H    -4.187000000    -1.758000000     1.152000000
O    -4.503000000     2.971000000     2.527000000
H    -4.913000000     3.665000000     2.011000000
H    -3.646000000     2.844000000     2.120000000
O     3.433000000    -3.250000000     0.605000000
H     3.800000000    -4.121000000     0.760000000
H     4.000000000    -2.869000000    -0.066000000
O    -4.294000000    -3.529000000     1.527000000
H    -4.854000000    -3.792000000     0.797000000
H    -3.794000000    -4.317000000     1.742000000
O    -3.876000000    -2.963000000    -1.986000000
H    -4.290000000    -3.212000000    -2.812000000
H    -3.661000000    -3.795000000    -1.566000000
O     1.631000000     0.529000000    -7.070000000
H     2.515000000     0.286000000    -6.795000000
H     1.071000000    -0.162000000    -6.714000000
O     1.679000000     3.725000000     3.935000000
H     1.119000000     3.464000000     3.204000000
H     1.325000000     4.568000000     4.219000000
O    -3.086000000    -0.850000000    -4.905000000
H    -3.074000000    -1.728000000    -4.525000000
H    -4.010000000    -0.682000000    -5.093000000
O     2.905000000    -0.479000000    -4.020000000
H     2.107000000    -0.936000000    -4.286000000
H     3.465000000    -0.503000000    -4.795000000
O    -3.046000000    -0.648000000     3.557000000
H    -2.322000000    -0.158000000     3.945000000
H    -3.711000000    -0.677000000     4.245000000
O     1.034000000     7.424000000     3.542000000
H     0.450000000     8.183000000     3.558000000
H     0.831000000     6.983000000     2.717000000
O     6.626000000     1.756000000     0.205000000
H     5.716000000     1.815000000    -0.088000000
H     6.670000000     0.929000000     0.685000000
O     0.734000000    -0.941000000     3.924000000
H     0.700000000    -1.537000000     4.672000000
H     0.457000000    -1.474000000     3.179000000
O    -0.757000000     1.107000000     4.477000000
H    -0.310000000     1.944000000     4.347000000
H    -0.069000000     0.450000000     4.370000000
O    -3.849000000     7.009000000     1.538000000
H    -4.078000000     7.819000000     1.082000000
H    -4.291000000     6.321000000     1.040000000
O    -1.603000000     0.786000000    -3.443000000
H    -2.121000000     0.532000000    -2.680000000
H    -2.198000000     0.677000000    -4.185000000
O    -0.320000000     5.476000000     4.925000000
H     0.057000000     6.322000000     4.683000000
H    -0.982000000     5.309000000     4.254000000
O    -3.260000000     3.914000000    -0.859000000
H    -2.699000000     3.493000000    -0.208000000
H    -3.937000000     4.352000000    -0.344000000
O     2.459000000     1.284000000     4.989000000
H     2.162000000     2.130000000     4.652000000
H     3.380000000     1.425000000     5.208000000
O     4.475000000     1.356000000    -2.691000000
H     4.241000000     1.599000000    -1.795000000
H     3.741000000     0.822000000    -2.994000000
O    -2.340000000    -5.486000000     1.000000000
H    -2.438000000    -5.965000000     0.176000000
H    -1.607000000    -4.891000000     0.845000000
O    -5.585000000     5.070000000     0.673000000
H    -6.091000000     5.185000000    -0.132000000
H    -6.239000000     5.094000000     1.371000000
O     2.527000000     7.294000000     0.838000000
H     2.602000000     6.798000000     0.023000000
H     1.636000000     7.121000000     1.143000000
O     6.000000000    -0.433000000     4.231000000
H     6.392000000    -1.008000000     4.889000000
H     5.246000000    -0.924000000     3.904000000
O    -1.061000000     4.382000000    -2.644000000
H    -0.711000000     3.622000000    -3.108000000
H    -1.708000000     4.017000000    -2.040000000
O     6.593000000    -4.482000000    -2.853000000
H     6.012000000    -3.803000000    -2.509000000
H     6.957000000    -4.103000000    -3.652000000
O    -0.945000000    -1.790000000     1.994000000
H    -0.952000000    -1.239000000     1.211000000
H    -1.560000000    -1.366000000     2.591000000
O    -4.719000000     2.208000000    -2.799000000
H    -4.193000000     2.764000000    -2.225000000
H    -4.860000000     1.408000000    -2.293000000
O     0.349000000     5.634000000     1.534000000
H     0.013000000     5.724000000     0.643000000
H     0.093000000     4.751000000     1.799000000
O    -0.146000000    -4.818000000    -3.108000000
H    -0.243000000    -3.867000000    -3.135000000
H     0.708000000    -4.983000000    -3.507000000
O    -7.096000000     2.946000000     3.750000000
H    -7.670000000     3.538000000     3.264000000
H    -6.431000000     2.682000000     3.115000000
O     3.680000000    -1.552000000     3.263000000
H     2.882000000    -1.047000000     3.418000000
H     3.577000000    -1.898000000     2.377000000
O     3.738000000    -2.886000000    -5.491000000
H     3.117000000    -3.079000000    -6.193000000
H     3.847000000    -3.718000000    -5.031000000
O    -2.363000000    -6.235000000    -1.978000000
H    -2.930000000    -6.581000000    -2.667000000
H    -1.583000000    -5.930000000    -2.440000000
O    -7.308000000    -1.052000000     1.139000000
H    -6.443000000    -1.026000000     0.730000000
H    -7.609000000    -0.144000000     1.122000000
O     3.098000000    -4.617000000    -3.363000000
H     3.439000000    -3.776000000    -3.059000000
H     3.823000000    -5.229000000    -3.237000000
O    -5.107000000    -0.468000000    -1.676000000
H    -4.486000000    -1.109000000    -2.024000000
H    -5.082000000    -0.601000000    -0.729000000
O     4.263000000    -2.466000000    -2.520000000
H     4.821000000    -1.881000000    -2.009000000
H     3.711000000    -1.879000000    -3.038000000
O     4.128000000     3.531000000     2.628000000
H     4.405000000     2.882000000     3.274000000
H     3.296000000     3.864000000     2.964000000
O    -3.491000000     2.115000000     4.963000000
H    -3.818000000     2.416000000     4.115000000
H    -2.665000000     1.676000000     4.760000000
O     0.154000000    -1.073000000    -4.940000000
H    -0.535000000    -1.032000000    -5.604000000
H    -0.259000000    -0.730000000    -4.147000000
O    -2.364000000     5.269000000     3.324000000
H    -2.837000000     5.906000000     2.789000000
H    -2.157000000     4.556000000     2.720000000
