161
-3044.95120
C    -0.515000000     1.032000000    -1.011000000
H    -0.704000000     1.841000000    -1.713000000
C     0.869000000     0.753000000    -0.722000000
H     1.700000000     1.199000000    -1.263000000
C     1.174000000    -0.235000000     0.198000000
C     2.621000000    -0.509000000     0.573000000
H     3.165000000    -0.927000000    -0.276000000
H     3.024000000     0.448000000     0.913000000
H     2.735000000    -1.179000000     1.428000000
C     0.179000000    -1.046000000     0.712000000
H     0.436000000    -1.843000000     1.405000000
C    -1.148000000    -0.779000000     0.478000000
H    -1.825000000    -1.446000000     1.006000000
C    -1.520000000     0.294000000    -0.346000000
C    -2.991000000     0.660000000    -0.521000000
O    -3.884000000     0.021000000     0.046000000
O    -3.318000000     1.719000000    -0.899000000
O    -0.848000000     0.293000000    -6.019000000
H    -1.519000000    -0.049000000    -5.428000000
H    -0.174000000     0.646000000    -5.438000000
O     0.588000000    -1.250000000    -3.218000000
H     0.747000000    -0.459000000    -3.733000000
H     0.655000000    -0.961000000    -2.308000000
O    -7.333000000    -1.838000000    -0.896000000
H    -7.138000000    -0.907000000    -0.790000000
H    -6.720000000    -2.279000000    -0.308000000
O    -3.795000000    -2.300000000     4.738000000
H    -3.627000000    -3.203000000     5.008000000
H    -4.745000000    -2.254000000     4.633000000
O    -7.871000000     1.259000000     1.480000000
H    -7.235000000     0.807000000     0.925000000
H    -8.494000000     1.646000000     0.866000000
O    -1.395000000    -1.153000000     5.290000000
H    -2.345000000    -1.199000000     5.188000000
H    -1.096000000    -2.054000000     5.166000000
O    -3.480000000     1.898000000     2.972000000
H    -3.641000000     1.359000000     2.197000000
H    -4.058000000     1.533000000     3.642000000
O    -2.539000000     5.280000000    -4.542000000
H    -2.849000000     5.359000000    -3.640000000
H    -3.327000000     5.090000000    -5.051000000
O     4.160000000    -3.227000000     6.228000000
H     3.466000000    -2.679000000     6.596000000
H     4.394000000    -2.796000000     5.406000000
O     4.769000000    -0.479000000    -2.882000000
H     5.462000000    -1.001000000    -2.477000000
H     4.415000000    -1.043000000    -3.569000000
O     3.488000000     1.734000000    -3.498000000
H     3.414000000     2.413000000    -2.828000000
H     3.850000000     0.979000000    -3.035000000
O     2.854000000     3.438000000    -0.439000000
H     3.718000000     3.734000000    -0.724000000
H     2.936000000     3.339000000     0.510000000
O    -3.559000000    -3.594000000    -0.701000000
H    -3.489000000    -3.269000000    -1.598000000
H    -2.683000000    -3.917000000    -0.494000000
O     6.262000000    -2.199000000    -1.239000000
H     6.875000000    -1.674000000    -1.753000000
H     6.725000000    -3.022000000    -1.080000000
O     0.562000000     2.870000000    -6.452000000
H     0.986000000     2.190000000    -6.976000000
H     0.714000000     2.603000000    -5.546000000
O    -1.093000000    -3.101000000    -4.466000000
H    -0.474000000    -2.590000000    -3.944000000
H    -0.594000000    -3.362000000    -5.240000000
O    -0.973000000     2.822000000     2.753000000
H    -1.852000000     2.445000000     2.787000000
H    -0.387000000     2.073000000     2.859000000
O    -0.960000000    -4.572000000    -0.364000000
H    -0.303000000    -4.737000000     0.312000000
H    -0.520000000    -4.794000000    -1.185000000
O     2.352000000     1.683000000     4.224000000
H     1.621000000     1.093000000     4.039000000
H     2.055000000     2.206000000     4.968000000
O     1.844000000    -1.539000000     6.034000000
H     1.575000000    -2.089000000     5.298000000
H     1.255000000    -0.785000000     5.997000000
O     1.176000000    -4.964000000    -2.003000000
H     1.810000000    -4.298000000    -1.737000000
H     1.688000000    -5.771000000    -2.063000000
O     5.507000000     4.059000000    -0.243000000
H     6.363000000     4.435000000    -0.448000000
H     5.199000000     4.561000000     0.512000000
O    -4.820000000     4.248000000     1.538000000
H    -4.559000000     4.278000000     2.459000000
H    -4.011000000     4.047000000     1.067000000
O     0.713000000    -3.771000000     4.362000000
H     0.625000000    -4.179000000     5.223000000
H     0.928000000    -4.496000000     3.775000000
O    -3.643000000     2.248000000    -3.417000000
H    -4.557000000     2.490000000    -3.571000000
H    -3.585000000     2.124000000    -2.470000000
O     3.733000000     2.873000000     2.340000000
H     3.321000000     2.231000000     2.919000000
H     3.600000000     3.712000000     2.781000000
O     4.538000000    -1.211000000     4.180000000
H     4.285000000    -0.289000000     4.126000000
H     4.938000000    -1.400000000     3.331000000
O    -6.260000000    -2.644000000     3.705000000
H    -7.017000000    -2.060000000     3.660000000
H    -6.153000000    -2.968000000     2.811000000
O    -5.412000000    -1.991000000     0.759000000
H    -5.027000000    -1.130000000     0.594000000
H    -4.794000000    -2.608000000     0.368000000
O     6.621000000     1.731000000    -1.023000000
H     6.266000000     2.596000000    -0.818000000
H     6.419000000     1.200000000    -0.253000000
O     0.818000000     3.634000000    -2.690000000
H     1.030000000     4.481000000    -3.081000000
H     1.084000000     3.720000000    -1.774000000
O    -5.970000000     0.847000000    -1.438000000
H    -6.317000000     1.709000000    -1.206000000
H    -5.172000000     0.762000000    -0.915000000
O     4.992000000    -4.660000000     1.020000000
H     5.578000000    -3.987000000     1.367000000
H     4.398000000    -4.858000000     1.743000000
O     4.343000000    -5.243000000    -1.763000000
H     4.018000000    -6.137000000    -1.872000000
H     4.381000000    -5.116000000    -0.815000000
O    -2.485000000     4.035000000     0.088000000
H    -1.721000000     3.767000000     0.599000000
H    -2.862000000     3.214000000    -0.228000000
O    -6.077000000     3.560000000    -0.828000000
H    -6.757000000     4.231000000    -0.898000000
H    -5.546000000     3.835000000    -0.081000000
O     0.959000000     1.187000000    -4.161000000
H     0.576000000     1.848000000    -3.586000000
H     1.904000000     1.327000000    -4.090000000
O    -7.186000000    -0.021000000    -4.320000000
H    -7.734000000    -0.783000000    -4.131000000
H    -6.875000000     0.269000000    -3.463000000
O     1.098000000    -6.024000000     2.750000000
H     1.997000000    -6.205000000     3.026000000
H     0.985000000    -6.538000000     1.951000000
O     6.095000000     1.266000000     1.765000000
H     6.942000000     1.548000000     2.111000000
H     5.472000000     1.910000000     2.100000000
O    -3.810000000     5.726000000    -2.064000000
H    -3.430000000     5.214000000    -1.350000000
H    -4.742000000     5.775000000    -1.853000000
O    -0.049000000     0.267000000     3.426000000
H    -0.121000000    -0.190000000     2.588000000
H    -0.613000000    -0.231000000     4.018000000
O     2.566000000    -2.175000000    -5.325000000
H     3.110000000    -2.854000000    -4.926000000
H     1.961000000    -1.914000000    -4.631000000
O     4.557000000    -3.448000000    -3.974000000
H     4.373000000    -4.060000000    -3.261000000
H     5.234000000    -3.882000000    -4.494000000
O    -3.079000000    -0.181000000    -4.502000000
H    -3.242000000     0.583000000    -3.949000000
H    -3.853000000    -0.241000000    -5.062000000
O     5.365000000    -1.607000000     1.582000000
H     5.840000000    -0.776000000     1.559000000
H     5.316000000    -1.881000000     0.667000000
O    -2.395000000     2.726000000    -6.454000000
H    -2.548000000     2.876000000    -5.521000000
H    -1.544000000     2.290000000    -6.490000000
O    -3.524000000    -2.723000000    -3.370000000
H    -2.619000000    -2.919000000    -3.610000000
H    -3.601000000    -1.775000000    -3.476000000
