161
-3091.98351
C     1.133000000     0.814000000     0.525000000
H     2.031000000     1.281000000     0.921000000
C     1.181000000    -0.568000000     0.286000000
H     2.088000000    -1.141000000     0.461000000
C     0.144000000    -1.143000000    -0.506000000
C     0.092000000    -2.623000000    -0.661000000
H    -0.091000000    -2.904000000    -1.701000000
H     1.118000000    -2.925000000    -0.441000000
H    -0.560000000    -3.157000000     0.034000000
C    -1.078000000    -0.417000000    -0.646000000
H    -1.991000000    -0.904000000    -0.979000000
C    -1.190000000     0.913000000    -0.230000000
H    -2.117000000     1.472000000    -0.328000000
C    -0.048000000     1.536000000     0.360000000
C    -0.183000000     2.877000000     0.795000000
O    -1.249000000     3.477000000     0.657000000
O     0.721000000     3.413000000     1.458000000
O     4.549000000    -0.764000000    -3.245000000
H     3.842000000    -0.121000000    -3.184000000
H     5.342000000    -0.268000000    -3.041000000
O     0.289000000    -1.762000000    -4.666000000
H    -0.577000000    -1.393000000    -4.841000000
H     0.211000000    -2.683000000    -4.916000000
O     2.191000000    -2.331000000     3.665000000
H     2.509000000    -1.799000000     4.394000000
H     1.556000000    -1.772000000     3.218000000
O    -4.108000000     5.056000000     3.349000000
H    -4.224000000     5.996000000     3.483000000
H    -3.177000000     4.904000000     3.511000000
O    -3.816000000     3.120000000     1.310000000
H    -2.946000000     3.305000000     0.956000000
H    -3.896000000     3.706000000     2.064000000
O    -2.612000000    -1.004000000     2.535000000
H    -3.135000000    -1.796000000     2.409000000
H    -2.139000000    -0.895000000     1.710000000
O    -2.738000000    -4.978000000    -0.259000000
H    -2.932000000    -4.227000000     0.302000000
H    -3.591000000    -5.379000000    -0.426000000
O    -3.556000000     1.090000000     3.836000000
H    -3.148000000     0.241000000     3.669000000
H    -3.560000000     1.526000000     2.983000000
O     3.176000000    -4.700000000     0.173000000
H     3.526000000    -3.842000000    -0.067000000
H     3.326000000    -5.245000000    -0.600000000
O    -0.717000000    -3.822000000     2.705000000
H    -0.316000000    -2.961000000     2.825000000
H    -0.004000000    -4.377000000     2.389000000
O     5.112000000     4.869000000     3.621000000
H     4.910000000     5.624000000     3.069000000
H     4.279000000     4.646000000     4.036000000
O    -2.853000000    -3.704000000    -2.977000000
H    -2.342000000    -4.211000000    -2.346000000
H    -2.245000000    -3.533000000    -3.696000000
O     0.980000000     4.984000000    -2.919000000
H     1.745000000     4.409000000    -2.892000000
H     0.835000000     5.234000000    -2.007000000
O    -0.816000000    -4.681000000    -4.916000000
H    -0.478000000    -4.859000000    -5.794000000
H    -0.982000000    -5.547000000    -4.543000000
O     6.091000000    -0.886000000     0.399000000
H     5.799000000    -0.123000000     0.898000000
H     6.689000000    -1.344000000     0.989000000
O    -0.477000000    -1.329000000     4.306000000
H    -1.163000000    -0.887000000     3.805000000
H    -0.933000000    -1.698000000     5.062000000
O     1.093000000     0.436000000     5.621000000
H     0.942000000     1.210000000     5.078000000
H     0.484000000    -0.219000000     5.279000000
O     1.174000000    -5.708000000     1.587000000
H     1.944000000    -5.219000000     1.296000000
H     1.441000000    -6.102000000     2.418000000
O    -1.640000000     4.257000000     3.796000000
H    -0.879000000     3.970000000     4.300000000
H    -1.361000000     4.196000000     2.883000000
O    -2.721000000    -1.106000000    -4.713000000
H    -2.920000000    -0.217000000    -4.419000000
H    -3.358000000    -1.656000000    -4.258000000
O     1.071000000    -7.369000000    -0.751000000
H     0.600000000    -6.857000000    -1.409000000
H     1.246000000    -6.748000000    -0.044000000
O    -0.145000000     8.041000000    -1.225000000
H    -0.873000000     7.755000000    -0.673000000
H     0.097000000     8.899000000    -0.877000000
O     2.792000000     7.024000000    -0.652000000
H     1.880000000     7.315000000    -0.657000000
H     2.756000000     6.119000000    -0.963000000
O    -4.915000000     2.111000000    -0.959000000
H    -4.566000000     2.595000000    -0.211000000
H    -5.858000000     2.271000000    -0.929000000
O    -3.059000000     6.733000000    -1.417000000
H    -3.756000000     6.908000000    -2.050000000
H    -2.546000000     6.029000000    -1.814000000
O     3.413000000     1.293000000     2.957000000
H     3.940000000     0.656000000     3.441000000
H     2.592000000     1.346000000     3.446000000
O     5.073000000     4.280000000    -0.889000000
H     5.387000000     5.102000000    -1.266000000
H     4.229000000     4.504000000    -0.497000000
O    -1.510000000    -7.263000000     1.294000000
H    -1.772000000    -6.468000000     0.830000000
H    -0.703000000    -7.021000000     1.747000000
O    -3.987000000    -3.149000000     1.933000000
H    -4.089000000    -3.776000000     2.649000000
H    -4.817000000    -3.189000000     1.458000000
O     3.930000000     6.881000000     1.684000000
H     3.462000000     6.914000000     0.850000000
H     3.250000000     6.704000000     2.334000000
O     2.222000000     4.044000000    -0.634000000
H     2.382000000     3.140000000    -0.903000000
H     1.866000000     3.972000000     0.251000000
O    -1.775000000     6.022000000     1.331000000
H    -1.480000000     5.209000000     0.922000000
H    -2.615000000     6.210000000     0.913000000
O    -3.020000000    -4.462000000     4.319000000
H    -2.426000000    -4.264000000     3.595000000
H    -2.888000000    -3.745000000     4.940000000
O    -3.286000000     1.203000000    -2.897000000
H    -2.474000000     1.699000000    -2.793000000
H    -3.813000000     1.442000000    -2.134000000
O     1.472000000     6.076000000     3.038000000
H     0.902000000     6.452000000     3.709000000
H     0.870000000     5.683000000     2.406000000
O     4.650000000    -3.217000000     2.018000000
H     3.878000000    -2.901000000     2.487000000
H     4.321000000    -3.929000000     1.469000000
O     3.462000000    -2.732000000    -4.884000000
H     2.648000000    -2.422000000    -4.486000000
H     4.127000000    -2.112000000    -4.584000000
O    -0.334000000     2.488000000    -3.446000000
H     0.201000000     3.261000000    -3.622000000
H     0.292000000     1.765000000    -3.418000000
O    -1.090000000    -6.183000000    -2.055000000
H    -1.522000000    -6.894000000    -2.527000000
H    -1.752000000    -5.867000000    -1.440000000
O     3.560000000    -6.113000000    -2.162000000
H     3.186000000    -6.033000000    -3.039000000
H     4.482000000    -5.880000000    -2.272000000
O    -4.707000000    -0.905000000    -0.191000000
H    -4.854000000     0.025000000    -0.363000000
H    -5.401000000    -1.147000000     0.422000000
O     4.289000000    -2.238000000    -1.063000000
H     4.896000000    -1.842000000    -0.438000000
H     4.609000000    -1.955000000    -1.919000000
O     5.256000000     1.926000000     0.660000000
H     4.489000000     2.035000000     1.223000000
H     5.493000000     2.817000000     0.404000000
O    -2.170000000     4.016000000    -1.828000000
H    -1.706000000     4.089000000    -0.994000000
H    -1.705000000     3.326000000    -2.302000000
O     3.221000000     1.566000000    -1.535000000
H     3.240000000     0.909000000    -0.840000000
H     4.139000000     1.689000000    -1.774000000
O     1.899000000     0.600000000    -3.688000000
H     1.579000000    -0.292000000    -3.555000000
H     2.089000000     0.920000000    -2.806000000
O    -5.248000000    -2.613000000    -2.359000000
H    -4.880000000    -1.910000000    -1.824000000
H    -4.497000000    -3.165000000    -2.579000000
O     1.141000000     2.672000000     3.892000000
H     0.962000000     2.790000000     2.959000000
H     1.770000000     3.363000000     4.104000000
