161
-3049.31786
C     0.459000000     0.938000000     1.068000000
H     0.896000000     1.506000000     1.886000000
C     1.290000000     0.120000000     0.284000000
H     2.363000000     0.126000000     0.455000000
C     0.713000000    -0.694000000    -0.728000000
C     1.609000000    -1.713000000    -1.324000000
H     1.186000000    -2.707000000    -1.484000000
H     1.945000000    -1.317000000    -2.285000000
H     2.538000000    -1.867000000    -0.772000000
C    -0.667000000    -0.755000000    -0.943000000
H    -1.065000000    -1.504000000    -1.622000000
C    -1.517000000     0.120000000    -0.210000000
H    -2.600000000     0.039000000    -0.267000000
C    -0.996000000     0.897000000     0.855000000
C    -1.879000000     1.923000000     1.571000000
O    -2.941000000     2.176000000     1.146000000
O    -1.337000000     2.710000000     2.370000000
O    -2.062000000     4.274000000    -2.581000000
H    -1.215000000     4.120000000    -2.999000000
H    -1.849000000     4.451000000    -1.665000000
O     4.529000000     1.929000000     4.417000000
H     4.412000000     1.749000000     5.350000000
H     4.686000000     2.872000000     4.373000000
O     3.151000000     5.470000000     3.580000000
H     3.674000000     5.272000000     2.804000000
H     2.244000000     5.389000000     3.285000000
O     0.656000000    -5.522000000    -4.325000000
H     0.214000000    -4.675000000    -4.388000000
H     1.286000000    -5.410000000    -3.613000000
O     5.220000000    -4.138000000    -0.488000000
H     5.526000000    -3.889000000    -1.360000000
H     5.836000000    -4.811000000    -0.201000000
O    -6.679000000    -1.032000000     1.719000000
H    -6.256000000    -0.191000000     1.891000000
H    -7.433000000    -0.814000000     1.172000000
O    -6.848000000     4.612000000     2.472000000
H    -7.320000000     5.363000000     2.833000000
H    -6.070000000     4.992000000     2.064000000
O     0.270000000    -5.234000000    -1.200000000
H    -0.644000000    -5.138000000    -1.466000000
H     0.256000000    -5.122000000    -0.249000000
O     5.591000000     0.106000000     0.741000000
H     6.365000000     0.657000000     0.854000000
H     4.855000000     0.717000000     0.773000000
O     3.130000000     0.585000000    -3.021000000
H     2.362000000     1.032000000    -2.666000000
H     3.216000000     0.927000000    -3.911000000
O     6.347000000     1.392000000    -3.972000000
H     6.001000000     1.067000000    -4.803000000
H     5.880000000     0.888000000    -3.305000000
O    -1.573000000    -2.132000000     1.693000000
H    -1.476000000    -1.590000000     0.910000000
H    -1.454000000    -3.029000000     1.379000000
O     4.774000000    -2.525000000     1.457000000
H     4.743000000    -1.633000000     1.113000000
H     4.891000000    -3.076000000     0.683000000
O     3.434000000    -1.899000000    -5.857000000
H     3.424000000    -2.614000000    -6.492000000
H     3.610000000    -2.325000000    -5.018000000
O    -0.315000000    -3.116000000    -4.935000000
H    -0.646000000    -2.524000000    -4.259000000
H    -1.064000000    -3.265000000    -5.511000000
O     4.225000000    -5.014000000     2.952000000
H     4.939000000    -4.875000000     3.575000000
H     4.271000000    -4.260000000     2.364000000
O     1.046000000    -0.942000000    -6.923000000
H     0.533000000    -0.304000000    -6.427000000
H     1.733000000    -1.220000000    -6.317000000
O    -0.041000000     6.948000000     1.573000000
H     0.529000000     7.514000000     1.053000000
H     0.221000000     7.112000000     2.479000000
O    -5.314000000    -3.216000000    -2.171000000
H    -5.950000000    -2.992000000    -1.492000000
H    -5.441000000    -4.153000000    -2.318000000
O     5.058000000     4.752000000     1.739000000
H     4.850000000     3.845000000     1.512000000
H     5.696000000     4.681000000     2.449000000
O    -3.244000000    -1.872000000     4.236000000
H    -2.608000000    -1.789000000     3.525000000
H    -2.728000000    -1.763000000     5.034000000
O     5.272000000    -0.584000000    -2.295000000
H     5.457000000    -0.504000000    -1.359000000
H     4.423000000    -0.158000000    -2.408000000
O    -2.891000000    -2.338000000    -3.262000000
H    -3.725000000    -2.398000000    -2.796000000
H    -3.100000000    -1.869000000    -4.070000000
O    -4.498000000     6.474000000     3.192000000
H    -4.504000000     6.331000000     2.245000000
H    -4.341000000     5.607000000     3.565000000
O     1.882000000     1.565000000     4.245000000
H     2.809000000     1.420000000     4.431000000
H     1.844000000     2.456000000     3.897000000
O    -1.281000000    -1.191000000     6.102000000
H    -0.938000000    -1.132000000     6.993000000
H    -1.381000000    -0.281000000     5.822000000
O    -3.895000000     2.098000000    -1.432000000
H    -3.131000000     2.569000000    -1.768000000
H    -3.626000000     1.794000000    -0.565000000
O     0.219000000     3.394000000    -4.006000000
H     0.698000000     2.977000000    -3.290000000
H    -0.018000000     2.672000000    -4.588000000
O     0.692000000     4.001000000     3.367000000
H     0.631000000     4.258000000     4.287000000
H    -0.155000000     3.599000000     3.174000000
O     3.148000000    -5.353000000    -1.942000000
H     2.279000000    -5.071000000    -1.655000000
H     3.754000000    -4.869000000    -1.380000000
O    -0.533000000     1.227000000     5.262000000
H    -0.930000000     1.731000000     4.551000000
H     0.399000000     1.202000000     5.046000000
O    -5.920000000     0.261000000    -2.440000000
H    -6.294000000    -0.294000000    -1.756000000
H    -5.242000000     0.768000000    -1.995000000
O    -4.228000000    -3.638000000     1.118000000
H    -5.145000000    -3.611000000     1.391000000
H    -3.776000000    -3.070000000     1.743000000
O     3.555000000     2.554000000     0.155000000
H     2.880000000     3.157000000     0.466000000
H     3.476000000     2.577000000    -0.799000000
O    -6.944000000     2.748000000    -1.026000000
H    -7.596000000     3.431000000    -0.870000000
H    -6.404000000     3.090000000    -1.738000000
O    -2.399000000    -4.882000000    -2.316000000
H    -2.518000000    -3.975000000    -2.598000000
H    -2.470000000    -5.394000000    -3.121000000
O    -4.060000000     1.517000000     4.985000000
H    -4.492000000     0.928000000     4.366000000
H    -3.961000000     0.996000000     5.782000000
O     2.898000000    -1.593000000     4.047000000
H     3.194000000    -1.919000000     3.197000000
H     2.152000000    -1.030000000     3.840000000
O    -4.790000000     5.561000000     0.520000000
H    -4.257000000     4.778000000     0.382000000
H    -4.888000000     5.941000000    -0.353000000
O    -3.536000000     3.818000000     3.575000000
H    -2.958000000     3.465000000     2.898000000
H    -3.735000000     3.068000000     4.136000000
O     0.351000000    -1.481000000     3.589000000
H    -0.190000000    -1.284000000     4.354000000
H    -0.222000000    -1.315000000     2.841000000
O    -0.058000000    -5.104000000     1.680000000
H     0.337000000    -4.608000000     2.397000000
H     0.535000000    -5.843000000     1.545000000
O    -3.792000000    -5.973000000    -0.285000000
H    -3.428000000    -5.343000000    -0.907000000
H    -4.030000000    -5.446000000     0.478000000
O    -5.761000000     2.017000000     2.282000000
H    -6.076000000     2.920000000     2.236000000
H    -4.814000000     2.087000000     2.166000000
O     4.206000000    -4.599000000    -4.328000000
H     3.813000000    -5.001000000    -3.553000000
H     3.929000000    -5.159000000    -5.054000000
O    -1.279000000     4.640000000     0.253000000
H    -1.081000000     5.522000000     0.565000000
H    -1.466000000     4.140000000     1.047000000
O     1.843000000     3.090000000    -1.898000000
H     1.396000000     3.420000000    -1.119000000
H     2.648000000     3.605000000    -1.949000000
O     1.512000000     4.280000000     0.698000000
H     1.311000000     4.130000000     1.622000000
H     0.700000000     4.625000000     0.329000000
