161
-3015.66606
C    -0.378000000     0.289000000    -1.423000000
H    -0.552000000     0.389000000    -2.491000000
C    -0.551000000    -0.931000000    -0.859000000
H    -0.992000000    -1.792000000    -1.357000000
C    -0.205000000    -1.056000000     0.539000000
C    -0.529000000    -2.338000000     1.265000000
H    -1.476000000    -2.240000000     1.800000000
H    -0.389000000    -3.237000000     0.662000000
H     0.197000000    -2.417000000     2.077000000
C     0.416000000    -0.055000000     1.213000000
H     0.684000000    -0.254000000     2.248000000
C     0.564000000     1.175000000     0.630000000
H     1.090000000     1.981000000     1.135000000
C     0.202000000     1.388000000    -0.701000000
C     0.536000000     2.720000000    -1.362000000
O     1.333000000     3.479000000    -0.877000000
O     0.049000000     2.899000000    -2.494000000
O     1.266000000     7.916000000    -3.446000000
H     1.350000000     6.993000000    -3.686000000
H     0.383000000     7.991000000    -3.084000000
O    -3.169000000     2.230000000    -5.149000000
H    -2.598000000     2.981000000    -4.993000000
H    -3.572000000     2.408000000    -5.999000000
O     5.897000000     1.885000000    -2.428000000
H     6.471000000     2.623000000    -2.224000000
H     5.461000000     1.685000000    -1.599000000
O     0.751000000     7.504000000     0.024000000
H     0.974000000     6.663000000     0.424000000
H     1.400000000     7.617000000    -0.671000000
O    -0.769000000    -4.220000000     4.451000000
H    -1.313000000    -4.713000000     3.837000000
H    -0.555000000    -3.412000000     3.986000000
O     0.909000000     1.355000000    -4.678000000
H     0.377000000     1.732000000    -3.978000000
H     1.784000000     1.276000000    -4.298000000
O     4.242000000     0.520000000     1.876000000
H     4.001000000     0.296000000     2.776000000
H     5.166000000     0.281000000     1.809000000
O     3.998000000     0.075000000     4.661000000
H     3.679000000     0.380000000     5.511000000
H     4.951000000     0.140000000     4.726000000
O    -1.993000000     4.704000000    -2.408000000
H    -1.502000000     3.895000000    -2.548000000
H    -1.911000000     4.875000000    -1.470000000
O     0.818000000    -5.333000000    -0.272000000
H    -0.010000000    -5.365000000    -0.752000000
H     1.356000000    -4.714000000    -0.765000000
O     2.736000000    -2.586000000     5.206000000
H     3.140000000    -2.062000000     4.515000000
H     1.971000000    -2.077000000     5.477000000
O    -5.010000000     0.569000000    -3.497000000
H    -4.366000000     1.129000000    -3.930000000
H    -5.082000000    -0.198000000    -4.066000000
O     4.204000000     3.556000000    -5.211000000
H     3.681000000     3.922000000    -4.498000000
H     4.821000000     2.967000000    -4.778000000
O    -4.456000000     0.996000000    -0.591000000
H    -3.836000000     0.985000000     0.138000000
H    -4.359000000     0.137000000    -1.001000000
O    -1.500000000     4.486000000    -5.295000000
H    -0.700000000     4.028000000    -5.552000000
H    -1.234000000     5.401000000    -5.208000000
O    -5.061000000    -4.403000000     3.540000000
H    -4.298000000    -4.352000000     4.115000000
H    -5.089000000    -3.552000000     3.103000000
O     2.920000000    -3.732000000    -1.019000000
H     3.441000000    -4.278000000    -0.429000000
H     2.889000000    -2.877000000    -0.590000000
O    -1.754000000     7.448000000    -3.112000000
H    -2.564000000     7.597000000    -3.600000000
H    -1.656000000     6.496000000    -3.096000000
O    -1.344000000     3.819000000     3.130000000
H    -1.373000000     3.997000000     4.070000000
H    -1.964000000     3.102000000     3.003000000
O     0.841000000    -6.132000000     2.315000000
H     0.232000000    -5.533000000     2.748000000
H     0.973000000    -5.754000000     1.446000000
O    -0.725000000     6.394000000     3.953000000
H    -1.667000000     6.428000000     4.120000000
H    -0.610000000     5.634000000     3.383000000
O    -4.714000000    -1.523000000     5.413000000
H    -4.759000000    -1.650000000     4.466000000
H    -4.230000000    -0.704000000     5.523000000
O    -4.799000000    -1.730000000     2.708000000
H    -5.460000000    -1.477000000     2.064000000
H    -4.061000000    -1.144000000     2.537000000
O     3.884000000     2.030000000    -0.403000000
H     4.069000000     1.572000000     0.417000000
H     3.209000000     2.668000000    -0.174000000
O     0.740000000    -0.473000000     5.573000000
H     0.903000000    -0.688000000     6.491000000
H     0.397000000     0.421000000     5.594000000
O    -1.673000000     4.266000000     0.370000000
H    -1.605000000     3.978000000     1.281000000
H    -0.801000000     4.603000000     0.160000000
O     1.681000000     5.162000000     1.114000000
H     1.500000000     4.546000000     0.404000000
H     2.092000000     4.629000000     1.795000000
O     2.538000000     4.701000000    -2.921000000
H     3.313000000     4.299000000    -2.529000000
H     1.803000000     4.325000000    -2.438000000
O    -3.978000000    -1.725000000    -1.319000000
H    -3.749000000    -1.642000000    -2.245000000
H    -3.492000000    -2.494000000    -1.021000000
O    -3.505000000    -4.161000000     5.710000000
H    -2.615000000    -4.014000000     5.390000000
H    -3.855000000    -3.282000000     5.857000000
O    -1.563000000    -1.114000000     4.005000000
H    -2.304000000    -0.791000000     4.517000000
H    -0.821000000    -1.077000000     4.609000000
O     1.890000000    -2.634000000    -5.037000000
H     2.280000000    -3.244000000    -4.411000000
H     1.899000000    -1.789000000    -4.587000000
O     3.713000000     6.095000000    -0.442000000
H     4.410000000     5.793000000     0.141000000
H     2.907000000     5.779000000    -0.034000000
O    -1.270000000    -5.389000000    -2.200000000
H    -1.412000000    -5.003000000    -3.064000000
H    -1.530000000    -6.305000000    -2.302000000
O    -4.349000000     5.097000000    -4.079000000
H    -3.952000000     5.933000000    -4.325000000
H    -3.687000000     4.668000000    -3.538000000
O     0.589000000     3.110000000    -6.601000000
H     1.215000000     3.096000000    -7.325000000
H     0.783000000     2.316000000    -6.103000000
O    -1.926000000    -5.531000000     2.407000000
H    -1.872000000    -6.464000000     2.198000000
H    -2.125000000    -5.110000000     1.570000000
O    -3.658000000    -4.942000000    -0.996000000
H    -3.915000000    -5.859000000    -0.903000000
H    -2.754000000    -4.977000000    -1.308000000
O     1.823000000     3.265000000     5.514000000
H     2.174000000     3.202000000     4.626000000
H     2.469000000     2.815000000     6.059000000
O    -4.436000000     4.181000000     0.375000000
H    -4.790000000     3.515000000    -0.214000000
H    -3.522000000     4.276000000     0.109000000
O    -3.131000000     0.078000000     1.613000000
H    -2.282000000    -0.288000000     1.363000000
H    -2.935000000     0.656000000     2.350000000
O    -2.763000000    -1.858000000    -3.892000000
H    -2.255000000    -1.097000000    -4.173000000
H    -2.204000000    -2.608000000    -4.094000000
O    -1.428000000     0.162000000    -4.980000000
H    -0.544000000     0.504000000    -5.117000000
H    -1.994000000     0.931000000    -5.038000000
O     1.371000000    -8.054000000    -0.563000000
H     1.266000000    -7.114000000    -0.416000000
H     2.305000000    -8.167000000    -0.736000000
O     3.501000000     3.640000000     2.835000000
H     3.977000000     2.843000000     2.604000000
H     4.176000000     4.235000000     3.163000000
O     3.147000000     0.303000000    -3.090000000
H     3.470000000     1.008000000    -2.528000000
H     3.932000000    -0.184000000    -3.340000000
O     3.187000000    -1.252000000     0.043000000
H     3.173000000    -0.748000000     0.857000000
H     2.516000000    -0.844000000    -0.503000000
O     1.328000000     5.342000000    -5.468000000
H     1.031000000     4.584000000    -5.971000000
H     1.795000000     4.967000000    -4.722000000
