161
-3054.95001
C     1.258000000     0.656000000    -0.490000000
H     2.198000000     0.977000000    -0.933000000
C     0.575000000    -0.426000000    -1.053000000
H     0.985000000    -0.936000000    -1.921000000
C    -0.517000000    -1.005000000    -0.465000000
C    -1.047000000    -2.263000000    -1.037000000
H    -1.767000000    -2.697000000    -0.339000000
H    -1.543000000    -2.074000000    -1.991000000
H    -0.214000000    -2.934000000    -1.255000000
C    -1.178000000    -0.347000000     0.561000000
H    -2.093000000    -0.755000000     0.982000000
C    -0.580000000     0.822000000     1.106000000
H    -1.091000000     1.388000000     1.880000000
C     0.614000000     1.270000000     0.575000000
C     1.252000000     2.490000000     1.247000000
O     1.062000000     2.616000000     2.428000000
O     2.093000000     3.216000000     0.713000000
O     0.322000000     6.234000000    -1.183000000
H    -0.275000000     5.576000000    -0.827000000
H     0.337000000     6.926000000    -0.523000000
O     3.093000000    -2.345000000    -2.498000000
H     3.770000000    -2.620000000    -3.116000000
H     3.246000000    -1.408000000    -2.376000000
O    -3.544000000    -1.517000000    -4.454000000
H    -2.598000000    -1.373000000    -4.450000000
H    -3.645000000    -2.445000000    -4.667000000
O     4.178000000     6.391000000     3.710000000
H     4.845000000     7.021000000     3.983000000
H     4.580000000     5.536000000     3.858000000
O    -5.469000000     3.355000000     2.895000000
H    -6.212000000     2.813000000     2.628000000
H    -4.955000000     2.789000000     3.471000000
O    -5.304000000    -0.740000000     3.142000000
H    -5.317000000    -1.685000000     3.292000000
H    -5.474000000    -0.643000000     2.205000000
O    -0.726000000     4.387000000     6.603000000
H    -1.528000000     3.908000000     6.809000000
H    -0.623000000     4.286000000     5.657000000
O    -3.202000000    -6.761000000    -3.111000000
H    -3.242000000    -5.864000000    -2.777000000
H    -2.605000000    -6.712000000    -3.857000000
O     0.550000000    -2.287000000     3.406000000
H     0.914000000    -1.442000000     3.142000000
H     0.116000000    -2.110000000     4.241000000
O    -3.274000000    -4.423000000    -1.921000000
H    -3.868000000    -4.067000000    -1.260000000
H    -2.398000000    -4.241000000    -1.579000000
O    -6.537000000    -1.661000000    -2.520000000
H    -6.607000000    -0.713000000    -2.629000000
H    -5.718000000    -1.787000000    -2.041000000
O     4.832000000     2.950000000    -2.374000000
H     4.961000000     3.789000000    -1.932000000
H     5.582000000     2.873000000    -2.965000000
O    -1.243000000     2.267000000    -4.111000000
H    -1.639000000     2.855000000    -3.468000000
H    -1.932000000     2.122000000    -4.759000000
O     0.958000000     8.131000000     1.246000000
H     1.369000000     7.268000000     1.204000000
H     1.535000000     8.697000000     0.734000000
O     4.885000000    -0.076000000    -2.597000000
H     4.805000000     0.825000000    -2.285000000
H     5.811000000    -0.288000000    -2.481000000
O     1.516000000     6.245000000     3.863000000
H     1.322000000     6.973000000     4.454000000
H     2.472000000     6.225000000     3.813000000
O    -1.910000000     3.122000000    -1.180000000
H    -2.420000000     2.368000000    -1.476000000
H    -1.132000000     2.741000000    -0.772000000
O     3.407000000    -2.874000000     1.509000000
H     3.708000000    -2.022000000     1.825000000
H     3.139000000    -3.342000000     2.300000000
O     6.235000000     4.307000000     1.457000000
H     5.600000000     3.783000000     1.946000000
H     7.025000000     4.289000000     1.997000000
O    -2.935000000    -1.951000000     5.224000000
H    -3.634000000    -1.740000000     5.843000000
H    -3.309000000    -1.753000000     4.365000000
O     1.464000000     0.319000000     3.544000000
H     1.797000000     0.526000000     4.418000000
H     1.332000000     1.172000000     3.130000000
O    -0.129000000     4.122000000     4.073000000
H     0.250000000     3.554000000     3.402000000
H     0.413000000     4.911000000     4.052000000
O     3.162000000     3.340000000     4.023000000
H     3.080000000     2.816000000     3.226000000
H     2.302000000     3.746000000     4.132000000
O    -1.271000000     5.129000000     0.946000000
H    -1.733000000     5.314000000     1.764000000
H    -1.854000000     4.537000000     0.471000000
O     2.247000000     0.550000000     6.287000000
H     2.582000000    -0.332000000     6.450000000
H     1.950000000     0.855000000     7.145000000
O     4.392000000     2.157000000     1.525000000
H     3.543000000     2.526000000     1.282000000
H     4.869000000     2.087000000     0.698000000
O     3.996000000    -0.427000000     2.518000000
H     3.227000000    -0.350000000     3.083000000
H     4.095000000     0.442000000     2.130000000
O    -2.195000000     6.036000000     3.520000000
H    -1.602000000     5.300000000     3.670000000
H    -1.617000000     6.791000000     3.414000000
O    -0.822000000    -0.921000000    -4.263000000
H    -0.238000000    -1.562000000    -4.668000000
H    -0.244000000    -0.370000000    -3.736000000
O     5.573000000     3.815000000     4.877000000
H     4.691000000     3.875000000     4.509000000
H     5.968000000     3.065000000     4.433000000
O     2.570000000     2.313000000    -3.719000000
H     1.909000000     2.824000000    -3.252000000
H     3.339000000     2.339000000    -3.150000000
O     5.119000000     6.421000000     0.286000000
H     5.618000000     5.695000000     0.659000000
H     4.228000000     6.291000000     0.609000000
O    -0.779000000    -8.338000000    -1.630000000
H    -0.401000000    -7.583000000    -1.178000000
H    -1.540000000    -7.984000000    -2.092000000
O     3.594000000    -6.179000000    -1.662000000
H     2.849000000    -5.708000000    -1.288000000
H     3.966000000    -5.570000000    -2.300000000
O    -4.939000000     0.451000000     0.563000000
H    -4.384000000     1.162000000     0.243000000
H    -5.829000000     0.723000000     0.340000000
O    -4.469000000    -2.125000000    -0.387000000
H    -4.299000000    -2.710000000     0.352000000
H    -4.644000000    -1.275000000     0.017000000
O    -3.007000000     0.785000000    -2.383000000
H    -3.063000000    -0.131000000    -2.109000000
H    -2.489000000     0.763000000    -3.188000000
O     2.444000000     5.772000000     1.115000000
H     2.309000000     5.594000000     2.046000000
H     2.504000000     4.906000000     0.711000000
O     0.999000000     1.706000000    -6.050000000
H     1.472000000     2.237000000    -5.410000000
H     0.099000000     1.683000000    -5.724000000
O     1.611000000    -5.976000000    -4.529000000
H     1.275000000    -5.430000000    -3.818000000
H     1.570000000    -6.869000000    -4.186000000
O     4.838000000    -0.721000000    -5.580000000
H     4.292000000    -0.286000000    -6.235000000
H     4.501000000    -0.407000000    -4.741000000
O    -4.698000000     1.006000000     5.068000000
H    -5.412000000     0.607000000     5.565000000
H    -4.609000000     0.454000000     4.291000000
O    -3.387000000    -2.904000000     2.273000000
H    -3.344000000    -3.818000000     1.991000000
H    -2.524000000    -2.547000000     2.061000000
O     1.380000000    -2.281000000    -4.916000000
H     1.615000000    -2.801000000    -5.685000000
H     2.115000000    -2.399000000    -4.314000000
O     1.929000000    -4.134000000    -0.615000000
H     2.320000000    -3.679000000     0.131000000
H     2.091000000    -3.556000000    -1.360000000
O    -4.107000000    -5.355000000     1.388000000
H    -5.052000000    -5.473000000     1.488000000
H    -3.776000000    -6.231000000     1.193000000
O     1.268000000     3.760000000    -1.922000000
H     0.704000000     4.532000000    -1.878000000
H     1.544000000     3.614000000    -1.017000000
O     0.184000000    -6.071000000    -0.285000000
H     0.175000000    -6.259000000     0.654000000
H     0.698000000    -5.267000000    -0.363000000
