161
-3052.86014
C    -0.719000000     0.720000000    -1.165000000
H    -1.301000000     1.130000000    -1.987000000
C    -0.921000000    -0.630000000    -0.770000000
H    -1.638000000    -1.216000000    -1.339000000
C    -0.223000000    -1.179000000     0.320000000
C    -0.411000000    -2.619000000     0.905000000
H    -0.927000000    -3.231000000     0.163000000
H     0.523000000    -3.117000000     1.174000000
H    -1.067000000    -2.492000000     1.769000000
C     0.666000000    -0.367000000     0.991000000
H     1.103000000    -0.843000000     1.865000000
C     0.923000000     0.980000000     0.585000000
H     1.626000000     1.651000000     1.073000000
C     0.249000000     1.449000000    -0.452000000
C     0.562000000     2.935000000    -0.848000000
O     1.596000000     3.379000000    -0.451000000
O    -0.033000000     3.453000000    -1.825000000
O     1.827000000     7.778000000    -2.994000000
H     2.215000000     6.912000000    -3.114000000
H     0.929000000     7.684000000    -3.311000000
O    -2.504000000     3.181000000    -2.699000000
H    -1.589000000     3.354000000    -2.479000000
H    -2.964000000     3.987000000    -2.464000000
O     1.161000000     8.803000000    -0.539000000
H     1.268000000     8.696000000    -1.484000000
H     1.415000000     7.956000000    -0.172000000
O    -0.539000000    -4.624000000     4.219000000
H    -0.301000000    -5.426000000     3.753000000
H     0.240000000    -4.072000000     4.161000000
O     0.873000000     2.475000000    -4.224000000
H     0.661000000     2.945000000    -3.418000000
H     1.407000000     1.735000000    -3.937000000
O     3.568000000     4.113000000     3.717000000
H     4.008000000     4.385000000     4.523000000
H     3.403000000     3.178000000     3.839000000
O     4.989000000     0.791000000     3.764000000
H     4.253000000     0.762000000     4.376000000
H     5.716000000     0.394000000     4.244000000
O    -1.000000000     5.904000000    -1.397000000
H    -0.613000000     5.155000000    -1.850000000
H    -1.358000000     5.536000000    -0.589000000
O    -5.810000000    -2.723000000    -2.844000000
H    -5.405000000    -2.804000000    -1.980000000
H    -5.110000000    -2.395000000    -3.408000000
O     2.768000000    -5.892000000     2.227000000
H     2.501000000    -4.978000000     2.128000000
H     3.721000000    -5.875000000     2.142000000
O    -3.889000000     1.521000000    -1.190000000
H    -3.321000000     1.757000000    -1.923000000
H    -4.734000000     1.917000000    -1.404000000
O     3.282000000    -4.922000000    -1.651000000
H     3.386000000    -5.530000000    -0.919000000
H     3.318000000    -4.054000000    -1.249000000
O    -3.488000000     2.443000000     1.313000000
H    -2.807000000     1.872000000     1.669000000
H    -3.729000000     2.037000000     0.480000000
O     3.694000000    -2.689000000     0.345000000
H     4.558000000    -3.081000000     0.470000000
H     3.831000000    -1.753000000     0.494000000
O     0.315000000    -3.474000000    -3.671000000
H     0.688000000    -2.955000000    -2.958000000
H    -0.207000000    -2.849000000    -4.174000000
O    -1.014000000     7.857000000    -3.342000000
H    -1.512000000     7.394000000    -4.015000000
H    -1.436000000     7.609000000    -2.519000000
O    -1.547000000    -6.870000000     0.310000000
H    -1.211000000    -7.676000000    -0.084000000
H    -1.418000000    -6.202000000    -0.363000000
O     2.416000000     1.789000000     4.955000000
H     1.476000000     1.940000000     5.051000000
H     2.507000000     0.836000000     4.970000000
O     0.128000000    -6.849000000     2.552000000
H    -0.386000000    -6.796000000     1.746000000
H     1.027000000    -6.675000000     2.275000000
O    -0.315000000    -0.087000000     5.321000000
H    -0.901000000    -0.828000000     5.163000000
H     0.435000000    -0.468000000     5.777000000
O    -2.543000000    -2.565000000     4.786000000
H    -1.888000000    -3.241000000     4.609000000
H    -3.190000000    -2.671000000     4.088000000
O    -4.516000000    -2.189000000     2.777000000
H    -5.447000000    -2.314000000     2.591000000
H    -4.238000000    -1.510000000     2.162000000
O     4.120000000     2.363000000    -0.437000000
H     4.626000000     2.948000000     0.127000000
H     3.212000000     2.641000000    -0.318000000
O     2.743000000    -1.078000000     5.705000000
H     2.517000000    -1.858000000     6.213000000
H     3.399000000    -0.629000000     6.237000000
O     1.215000000     5.423000000     3.014000000
H     1.228000000     5.871000000     3.860000000
H     1.729000000     4.628000000     3.156000000
O     2.469000000     6.270000000     0.349000000
H     2.281000000     5.658000000     1.060000000
H     3.374000000     6.543000000     0.501000000
O     2.671000000     5.349000000    -2.163000000
H     2.399000000     4.431000000    -2.141000000
H     2.416000000     5.695000000    -1.308000000
O    -3.981000000    -1.465000000     0.222000000
H    -3.390000000    -0.714000000     0.169000000
H    -3.811000000    -1.961000000    -0.579000000
O    -2.422000000    -5.337000000     6.137000000
H    -1.647000000    -5.507000000     6.673000000
H    -2.096000000    -5.333000000     5.238000000
O     2.032000000    -3.309000000     3.926000000
H     2.152000000    -3.033000000     4.834000000
H     2.313000000    -2.555000000     3.407000000
O     1.258000000    -0.651000000    -2.963000000
H     1.047000000    -0.398000000    -2.064000000
H     2.097000000    -0.226000000    -3.141000000
O     5.885000000     5.927000000    -0.558000000
H     5.219000000     6.363000000    -0.028000000
H     6.137000000     5.160000000    -0.044000000
O     4.509000000    -0.154000000     0.965000000
H     4.539000000     0.214000000     1.848000000
H     4.462000000     0.610000000     0.390000000
O    -1.094000000    -5.544000000    -1.925000000
H    -0.374000000    -5.043000000    -2.310000000
H    -1.530000000    -5.950000000    -2.674000000
O     0.039000000     2.087000000    -6.736000000
H     0.580000000     2.549000000    -7.376000000
H     0.491000000     2.219000000    -5.902000000
O    -3.406000000    -6.643000000     3.677000000
H    -3.806000000    -6.416000000     4.517000000
H    -3.363000000    -5.813000000     3.201000000
O    -3.227000000    -4.584000000     1.778000000
H    -3.218000000    -4.765000000     0.838000000
H    -3.529000000    -3.678000000     1.845000000
O    -3.090000000    -3.447000000    -1.809000000
H    -3.513000000    -3.730000000    -2.619000000
H    -2.412000000    -4.104000000    -1.651000000
O    -1.707000000     8.306000000    -0.303000000
H    -0.792000000     8.568000000    -0.408000000
H    -1.697000000     7.354000000    -0.400000000
O    -1.444000000     5.280000000     1.357000000
H    -1.628000000     4.439000000     1.775000000
H    -0.569000000     5.516000000     1.667000000
O    -0.925000000    -1.355000000    -5.132000000
H    -0.240000000    -1.034000000    -4.545000000
H    -1.206000000    -0.580000000    -5.617000000
O    -1.497000000     1.188000000     2.912000000
H    -0.553000000     1.026000000     2.934000000
H    -1.824000000     0.801000000     3.724000000
O    -3.477000000    -1.662000000    -4.017000000
H    -2.763000000    -1.138000000    -4.379000000
H    -3.138000000    -2.557000000    -4.011000000
O    -2.138000000     1.436000000    -5.157000000
H    -1.426000000     1.819000000    -5.670000000
H    -2.026000000     1.803000000    -4.280000000
O     4.678000000     6.382000000     1.749000000
H     5.515000000     6.156000000     2.155000000
H     4.021000000     6.114000000     2.391000000
O     3.122000000     0.608000000    -4.422000000
H     3.584000000     1.391000000    -4.123000000
H     3.276000000     0.584000000    -5.366000000
O     4.654000000     2.325000000    -3.034000000
H     5.525000000     2.703000000    -3.159000000
H     4.567000000     2.231000000    -2.086000000
O    -4.918000000     0.671000000    -4.080000000
H    -4.527000000    -0.072000000    -3.620000000
H    -4.302000000     0.866000000    -4.786000000
