161
-3005.53874
C    -1.501000000    -0.003000000     0.120000000
H    -2.577000000    -0.131000000     0.209000000
C    -0.667000000    -1.109000000    -0.190000000
H    -1.042000000    -2.125000000    -0.284000000
C     0.730000000    -0.992000000    -0.205000000
C     1.600000000    -2.197000000    -0.530000000
H     1.698000000    -2.932000000     0.271000000
H     1.276000000    -2.690000000    -1.449000000
H     2.614000000    -1.841000000    -0.728000000
C     1.243000000     0.295000000    -0.206000000
H     2.305000000     0.424000000    -0.397000000
C     0.481000000     1.420000000     0.113000000
H     0.909000000     2.419000000     0.123000000
C    -0.918000000     1.256000000     0.340000000
C    -1.811000000     2.421000000     0.830000000
O    -1.346000000     3.490000000     1.206000000
O    -3.000000000     2.290000000     0.781000000
O     1.455000000     3.057000000    -2.517000000
H     1.891000000     3.546000000    -1.819000000
H     1.086000000     2.291000000    -2.079000000
O    -0.274000000     6.625000000    -2.627000000
H    -0.191000000     6.107000000    -1.827000000
H    -0.009000000     6.029000000    -3.328000000
O    -6.312000000     2.766000000     4.009000000
H    -6.381000000     2.633000000     4.954000000
H    -5.418000000     2.499000000     3.795000000
O     6.368000000    -2.808000000    -2.531000000
H     5.615000000    -3.224000000    -2.111000000
H     6.513000000    -2.009000000    -2.025000000
O    -2.791000000    -2.779000000     1.964000000
H    -2.260000000    -3.512000000     1.652000000
H    -2.307000000    -2.435000000     2.715000000
O     2.700000000     1.849000000    -5.477000000
H     3.229000000     2.644000000    -5.539000000
H     2.379000000     1.845000000    -4.575000000
O     4.421000000    -0.021000000     1.385000000
H     4.932000000    -0.677000000     0.910000000
H     4.299000000     0.689000000     0.755000000
O    -7.096000000     3.561000000     1.661000000
H    -6.275000000     3.830000000     1.247000000
H    -6.828000000     2.962000000     2.357000000
O     1.668000000     6.829000000     1.971000000
H     1.994000000     6.341000000     1.215000000
H     0.911000000     6.326000000     2.272000000
O    -0.307000000     5.352000000    -0.263000000
H    -0.786000000     4.644000000     0.168000000
H     0.534000000     4.961000000    -0.500000000
O     1.110000000     2.631000000     3.644000000
H     0.733000000     2.555000000     4.521000000
H     1.310000000     1.730000000     3.390000000
O    -0.449000000    -5.541000000    -2.850000000
H     0.131000000    -5.937000000    -3.500000000
H    -1.304000000    -5.509000000    -3.280000000
O     4.539000000    -3.698000000    -0.206000000
H     3.718000000    -3.869000000    -0.667000000
H     5.002000000    -4.535000000    -0.223000000
O     1.286000000    -3.984000000     3.667000000
H     1.687000000    -3.769000000     4.510000000
H     1.912000000    -4.575000000     3.248000000
O    -3.069000000     5.424000000     2.090000000
H    -2.783000000     5.029000000     2.913000000
H    -3.040000000     4.706000000     1.457000000
O    -4.979000000    -1.158000000    -1.506000000
H    -4.960000000    -1.846000000    -0.841000000
H    -5.293000000    -0.383000000    -1.040000000
O     3.065000000     3.472000000    -0.108000000
H     3.700000000     3.723000000     0.564000000
H     3.493000000     2.764000000    -0.589000000
O     2.460000000    -1.680000000    -3.868000000
H     2.644000000    -2.549000000    -3.512000000
H     1.612000000    -1.442000000    -3.494000000
O    -0.146000000    -1.162000000    -3.371000000
H    -0.091000000    -0.908000000    -2.450000000
H    -0.791000000    -1.868000000    -3.388000000
O     3.245000000    -5.617000000     2.452000000
H     4.062000000    -5.726000000     2.940000000
H     2.877000000    -6.499000000     2.400000000
O     3.182000000    -6.228000000    -0.366000000
H     3.065000000    -5.782000000     0.473000000
H     3.839000000    -6.901000000    -0.189000000
O    -4.957000000    -1.044000000     2.625000000
H    -4.637000000    -0.263000000     3.076000000
H    -4.183000000    -1.409000000     2.197000000
O    -4.474000000    -1.833000000    -3.894000000
H    -5.034000000    -1.286000000    -4.445000000
H    -4.676000000    -1.559000000    -2.999000000
O     2.923000000    -4.294000000    -2.822000000
H     3.147000000    -4.814000000    -3.594000000
H     2.382000000    -4.877000000    -2.289000000
O     2.934000000     6.086000000    -0.675000000
H     3.478000000     6.347000000    -1.418000000
H     3.139000000     5.160000000    -0.543000000
O    -0.311000000    -1.774000000     3.713000000
H     0.286000000    -1.034000000     3.604000000
H     0.194000000    -2.534000000     3.423000000
O    -1.286000000    -4.974000000     2.404000000
H    -0.452000000    -4.830000000     2.852000000
H    -1.084000000    -4.849000000     1.476000000
O     1.750000000     0.019000000     3.151000000
H     2.265000000    -0.207000000     3.925000000
H     2.364000000    -0.066000000     2.421000000
O    -0.354000000     1.314000000    -4.883000000
H    -0.056000000     1.162000000    -5.780000000
H    -0.188000000     0.487000000    -4.432000000
O    -2.788000000     1.948000000    -3.273000000
H    -3.186000000     1.078000000    -3.255000000
H    -1.921000000     1.807000000    -3.655000000
O    -2.193000000     2.037000000     5.696000000
H    -2.361000000     2.931000000     5.398000000
H    -1.294000000     2.059000000     6.026000000
O    -0.457000000    -5.265000000    -0.081000000
H    -0.482000000    -5.082000000    -1.020000000
H    -0.682000000    -6.193000000    -0.012000000
O     4.750000000     1.626000000    -1.270000000
H     5.660000000     1.747000000    -1.001000000
H     4.807000000     1.168000000    -2.109000000
O     4.559000000     0.296000000    -3.784000000
H     3.898000000    -0.365000000    -3.579000000
H     4.154000000     0.837000000    -4.463000000
O    -1.768000000     7.408000000     1.128000000
H    -2.476000000     6.861000000     1.468000000
H    -1.084000000     6.786000000     0.879000000
O     0.298000000     4.756000000    -4.565000000
H     0.094000000     4.234000000    -5.340000000
H     0.669000000     4.129000000    -3.944000000
O    -3.341000000    -5.282000000     0.097000000
H    -2.733000000    -4.756000000    -0.422000000
H    -2.903000000    -6.127000000     0.196000000
O    -3.028000000     4.501000000     4.994000000
H    -3.528000000     5.290000000     4.789000000
H    -2.323000000     4.805000000     5.567000000
O    -3.761000000     1.426000000     3.283000000
H    -3.474000000     1.756000000     2.432000000
H    -3.035000000     1.623000000     3.874000000
O    -5.460000000     5.831000000    -0.305000000
H    -5.914000000     6.673000000    -0.272000000
H    -5.016000000     5.832000000    -1.153000000
O    -1.215000000     7.634000000     3.699000000
H    -0.940000000     6.737000000     3.890000000
H    -1.376000000     7.639000000     2.755000000
O    -3.344000000     3.831000000    -1.497000000
H    -3.262000000     3.048000000    -2.040000000
H    -3.312000000     3.504000000    -0.598000000
O     5.738000000    -2.969000000     2.892000000
H     5.431000000    -3.481000000     2.143000000
H     5.531000000    -3.512000000     3.653000000
O    -0.049000000     5.055000000     2.979000000
H    -0.541000000     4.664000000     2.257000000
H     0.489000000     4.339000000     3.318000000
O     6.425000000    -1.727000000     0.186000000
H     7.221000000    -2.256000000     0.132000000
H     5.712000000    -2.353000000     0.065000000
O    -5.156000000     0.783000000     0.367000000
H    -5.372000000     0.162000000     1.063000000
H    -4.328000000     1.175000000     0.644000000
O    -2.173000000    -2.893000000    -3.372000000
H    -2.521000000    -3.752000000    -3.615000000
H    -2.902000000    -2.290000000    -3.519000000
O    -5.988000000     2.940000000    -3.503000000
H    -5.483000000     3.228000000    -2.742000000
H    -6.900000000     3.091000000    -3.255000000
