161
-3018.16299
C    -1.130000000     0.877000000     0.306000000
H    -1.935000000     1.597000000     0.427000000
C    -0.523000000     0.729000000    -0.965000000
H    -0.922000000     1.328000000    -1.780000000
C     0.597000000    -0.141000000    -1.087000000
C     1.251000000    -0.227000000    -2.381000000
H     1.274000000     0.788000000    -2.783000000
H     2.310000000    -0.492000000    -2.353000000
H     0.753000000    -0.745000000    -3.203000000
C     1.061000000    -0.923000000     0.006000000
H     1.967000000    -1.510000000    -0.117000000
C     0.430000000    -0.805000000     1.251000000
H     0.642000000    -1.407000000     2.131000000
C    -0.717000000     0.061000000     1.405000000
C    -1.488000000     0.280000000     2.717000000
O    -1.048000000    -0.377000000     3.692000000
O    -2.515000000     0.971000000     2.737000000
O    -0.025000000     6.000000000    -1.707000000
H     0.859000000     6.367000000    -1.726000000
H     0.041000000     5.245000000    -1.122000000
O     5.538000000     0.810000000    -3.557000000
H     5.139000000     1.678000000    -3.498000000
H     6.305000000     0.859000000    -2.986000000
O     1.100000000     0.009000000    -5.872000000
H     0.359000000    -0.117000000    -5.280000000
H     1.825000000    -0.451000000    -5.449000000
O     3.409000000    -5.128000000     3.397000000
H     3.023000000    -4.645000000     2.667000000
H     2.673000000    -5.304000000     3.984000000
O    -5.688000000     2.782000000     4.940000000
H    -4.975000000     3.099000000     4.385000000
H    -5.565000000     1.833000000     4.968000000
O    -2.544000000     2.798000000     7.282000000
H    -3.403000000     2.487000000     6.997000000
H    -1.922000000     2.214000000     6.847000000
O     2.565000000     2.511000000    -0.897000000
H     2.162000000     1.683000000    -1.157000000
H     2.644000000     3.006000000    -1.712000000
O    -1.976000000     4.077000000     0.955000000
H    -1.653000000     4.315000000     1.824000000
H    -1.228000000     4.220000000     0.374000000
O     3.984000000    -0.789000000     1.861000000
H     4.510000000    -1.550000000     2.109000000
H     3.981000000    -0.800000000     0.904000000
O     2.667000000    -3.860000000     0.383000000
H     2.931000000    -3.338000000    -0.375000000
H     3.171000000    -4.670000000     0.303000000
O     2.253000000    -3.132000000    -6.883000000
H     2.546000000    -2.696000000    -6.083000000
H     2.603000000    -2.594000000    -7.592000000
O     0.916000000    -5.832000000     1.086000000
H     1.391000000    -5.034000000     0.855000000
H     0.198000000    -5.875000000     0.454000000
O    -7.299000000     0.227000000     0.567000000
H    -6.587000000     0.670000000     1.028000000
H    -7.369000000    -0.625000000     0.997000000
O    -2.735000000    -2.110000000     6.524000000
H    -1.972000000    -1.880000000     5.995000000
H    -2.924000000    -3.018000000     6.291000000
O    -2.302000000    -3.147000000     3.795000000
H    -2.012000000    -2.235000000     3.763000000
H    -2.564000000    -3.346000000     2.896000000
O     4.336000000    -0.818000000    -0.856000000
H     4.279000000    -0.200000000    -1.586000000
H     5.121000000    -1.334000000    -1.041000000
O     2.245000000    -3.905000000    -2.764000000
H     2.243000000    -4.832000000    -2.525000000
H     2.899000000    -3.839000000    -3.460000000
O    -0.795000000    -3.931000000    -1.214000000
H    -0.788000000    -4.330000000    -2.084000000
H    -0.150000000    -3.225000000    -1.269000000
O    -2.604000000    -1.686000000    -0.722000000
H    -2.462000000    -2.631000000    -0.668000000
H    -1.835000000    -1.304000000    -0.298000000
O    -6.672000000     2.856000000     1.625000000
H    -5.857000000     2.530000000     2.007000000
H    -7.352000000     2.575000000     2.238000000
O    -1.184000000    -5.859000000     4.276000000
H    -2.123000000    -5.678000000     4.235000000
H    -0.770000000    -5.049000000     3.978000000
O     2.749000000    -0.846000000     4.417000000
H     2.790000000    -0.610000000     3.491000000
H     3.663000000    -0.868000000     4.700000000
O    -3.926000000     0.456000000     5.155000000
H    -3.404000000     0.548000000     4.358000000
H    -3.397000000    -0.102000000     5.725000000
O     2.511000000     2.286000000    -5.335000000
H     2.024000000     1.537000000    -5.678000000
H     2.937000000     2.666000000    -6.103000000
O    -2.173000000    -1.834000000    -4.760000000
H    -2.615000000    -2.602000000    -5.123000000
H    -1.298000000    -2.148000000    -4.531000000
O    -0.547000000     4.840000000     3.182000000
H    -0.154000000     5.609000000     3.594000000
H     0.194000000     4.363000000     2.808000000
O    -4.468000000     2.065000000    -5.580000000
H    -5.328000000     1.762000000    -5.289000000
H    -4.055000000     2.407000000    -4.787000000
O     1.423000000    -4.540000000     5.406000000
H     1.099000000    -3.640000000     5.403000000
H     0.638000000    -5.077000000     5.512000000
O     3.316000000    -1.369000000    -4.935000000
H     4.017000000    -0.723000000    -5.019000000
H     3.275000000    -1.557000000    -3.997000000
O    -5.022000000     0.607000000     2.021000000
H    -5.171000000    -0.131000000     2.612000000
H    -4.094000000     0.817000000     2.130000000
O     0.735000000     4.180000000     0.369000000
H     1.331000000     4.914000000     0.515000000
H     1.311000000     3.432000000     0.208000000
O     2.327000000     3.879000000    -3.138000000
H     2.975000000     4.573000000    -3.262000000
H     2.452000000     3.299000000    -3.890000000
O    -4.621000000     0.673000000    -1.015000000
H    -4.011000000    -0.062000000    -0.949000000
H    -4.894000000     0.839000000    -0.112000000
O    -0.961000000     1.166000000     5.772000000
H    -0.411000000     1.854000000     5.397000000
H    -0.969000000     0.477000000     5.108000000
O     3.705000000     2.266000000     1.540000000
H     3.650000000     1.311000000     1.572000000
H     3.466000000     2.489000000     0.640000000
O    -3.582000000     2.050000000    -3.154000000
H    -4.055000000     1.570000000    -2.475000000
H    -3.195000000     2.797000000    -2.696000000
O    -0.985000000     5.867000000    -4.396000000
H    -0.789000000     4.932000000    -4.457000000
H    -0.707000000     6.113000000    -3.513000000
O    -3.161000000     3.339000000     3.585000000
H    -2.763000000     2.504000000     3.339000000
H    -2.418000000     3.929000000     3.716000000
O     6.310000000    -2.846000000    -2.283000000
H     7.053000000    -2.607000000    -2.838000000
H     5.626000000    -3.108000000    -2.899000000
O    -0.285000000     3.375000000    -4.945000000
H     0.660000000     3.304000000    -5.078000000
H    -0.570000000     2.479000000    -4.766000000
O    -4.365000000     5.699000000     1.100000000
H    -3.523000000     5.288000000     1.299000000
H    -4.879000000     5.591000000     1.899000000
O    -3.851000000     5.352000000    -3.573000000
H    -3.170000000     5.240000000    -4.237000000
H    -3.623000000     4.722000000    -2.888000000
O     0.605000000    -1.964000000     5.594000000
H    -0.017000000    -1.314000000     5.268000000
H     1.458000000    -1.655000000     5.287000000
O     0.259000000    -3.196000000    -4.546000000
H     1.045000000    -2.890000000    -4.094000000
H     0.336000000    -4.150000000    -4.542000000
O    -1.304000000     0.727000000    -4.499000000
H    -1.969000000     1.137000000    -3.945000000
H    -1.593000000    -0.181000000    -4.587000000
O     0.079000000    -1.073000000    -8.486000000
H     0.970000000    -1.281000000    -8.766000000
H     0.127000000    -1.048000000    -7.530000000
O     2.766000000     1.381000000     6.013000000
H     1.913000000     1.776000000     5.834000000
H     2.759000000     0.561000000     5.518000000
O    -3.355000000     3.985000000    -1.262000000
H    -4.243000000     4.021000000    -0.905000000
H    -2.789000000     3.939000000    -0.491000000
