161
-3056.86239
C    -1.457000000     0.155000000     0.044000000
H    -2.540000000     0.181000000    -0.053000000
C    -0.626000000     0.264000000    -1.038000000
H    -1.000000000     0.435000000    -2.044000000
C     0.722000000     0.092000000    -0.991000000
C     1.545000000     0.313000000    -2.212000000
H     2.614000000     0.186000000    -2.032000000
H     1.194000000    -0.176000000    -3.123000000
H     1.470000000     1.398000000    -2.318000000
C     1.287000000    -0.232000000     0.222000000
H     2.333000000    -0.517000000     0.298000000
C     0.504000000    -0.265000000     1.348000000
H     0.918000000    -0.403000000     2.344000000
C    -0.875000000    -0.062000000     1.287000000
C    -1.811000000    -0.338000000     2.456000000
O    -1.279000000    -0.763000000     3.483000000
O    -2.997000000    -0.270000000     2.327000000
O     4.355000000     1.926000000     1.256000000
H     4.633000000     1.200000000     1.815000000
H     4.697000000     1.705000000     0.390000000
O     4.964000000     0.255000000    -4.743000000
H     4.670000000     0.981000000    -4.192000000
H     4.517000000    -0.512000000    -4.387000000
O    -5.964000000    -0.642000000    -1.436000000
H    -5.532000000    -1.275000000    -0.863000000
H    -6.637000000    -0.241000000    -0.885000000
O     2.210000000    -5.852000000     1.395000000
H     2.861000000    -5.855000000     0.694000000
H     2.332000000    -5.008000000     1.831000000
O    -6.237000000     0.891000000     2.507000000
H    -5.770000000     0.140000000     2.140000000
H    -5.661000000     1.215000000     3.200000000
O     5.884000000     1.529000000    -1.052000000
H     5.818000000     0.580000000    -1.154000000
H     5.569000000     1.882000000    -1.884000000
O    -4.609000000    -4.745000000     3.634000000
H    -5.054000000    -5.404000000     3.102000000
H    -5.318000000    -4.244000000     4.038000000
O     1.803000000     4.184000000    -1.871000000
H     2.570000000     4.745000000    -1.755000000
H     1.403000000     4.490000000    -2.685000000
O     5.261000000    -2.781000000     0.913000000
H     5.649000000    -3.630000000     0.702000000
H     5.517000000    -2.213000000     0.187000000
O     0.194000000    -5.715000000    -0.884000000
H     0.092000000    -4.853000000    -0.479000000
H    -0.700000000    -6.042000000    -0.980000000
O    -2.945000000    -1.628000000     7.426000000
H    -2.695000000    -2.013000000     6.586000000
H    -3.351000000    -2.348000000     7.909000000
O    -2.241000000    -2.873000000     4.617000000
H    -1.973000000    -2.096000000     4.126000000
H    -2.908000000    -3.284000000     4.067000000
O     6.135000000    -1.524000000    -1.646000000
H     6.985000000    -1.669000000    -2.062000000
H     5.500000000    -1.883000000    -2.266000000
O    -1.185000000    -3.436000000    -2.547000000
H    -1.063000000    -3.287000000    -1.609000000
H    -0.322000000    -3.279000000    -2.929000000
O    -7.258000000     2.783000000     1.115000000
H    -7.023000000     2.111000000     1.755000000
H    -6.779000000     3.561000000     1.399000000
O     2.473000000    -2.884000000     2.235000000
H     3.373000000    -2.816000000     2.556000000
H     2.448000000    -2.310000000     1.470000000
O     1.143000000     1.971000000     5.544000000
H     1.312000000     2.271000000     4.651000000
H     1.459000000     2.684000000     6.100000000
O    -4.152000000    -0.346000000     4.691000000
H    -3.558000000    -0.030000000     5.372000000
H    -3.602000000    -0.424000000     3.911000000
O     3.785000000     1.839000000    -7.147000000
H     3.372000000     1.125000000    -7.632000000
H     4.218000000     1.409000000    -6.409000000
O    -2.396000000    -3.106000000    -6.047000000
H    -2.550000000    -4.026000000    -5.830000000
H    -2.790000000    -2.620000000    -5.323000000
O    -2.050000000     2.621000000    -3.712000000
H    -2.912000000     2.719000000    -3.307000000
H    -1.804000000     1.713000000    -3.534000000
O     1.781000000    -3.043000000    -6.746000000
H     1.000000000    -3.008000000    -7.297000000
H     2.512000000    -2.979000000    -7.361000000
O    -1.095000000    -3.348000000     0.101000000
H    -1.947000000    -3.539000000     0.494000000
H    -0.610000000    -2.894000000     0.790000000
O    -4.884000000    -1.592000000     0.898000000
H    -4.214000000    -1.058000000     1.326000000
H    -4.409000000    -2.358000000     0.574000000
O     0.277000000     3.872000000     0.848000000
H     0.690000000     3.907000000    -0.016000000
H     0.758000000     3.188000000     1.314000000
O     4.626000000     2.729000000    -3.225000000
H     3.706000000     2.991000000    -3.265000000
H     5.083000000     3.381000000    -3.756000000
O    -4.616000000     2.160000000    -2.239000000
H    -5.009000000     1.287000000    -2.243000000
H    -4.706000000     2.459000000    -1.335000000
O    -3.326000000    -4.023000000     1.057000000
H    -3.685000000    -4.298000000     1.901000000
H    -3.477000000    -4.769000000     0.478000000
O    -2.090000000     0.839000000     8.239000000
H    -1.609000000     1.128000000     7.463000000
H    -2.422000000    -0.028000000     8.006000000
O    -1.358000000     0.731000000     5.604000000
H    -0.568000000     1.269000000     5.566000000
H    -1.288000000     0.148000000     4.848000000
O     2.312000000     2.795000000     2.974000000
H     2.695000000     3.668000000     3.056000000
H     2.888000000     2.337000000     2.361000000
O    -3.442000000    -1.665000000    -3.457000000
H    -2.778000000    -2.140000000    -2.957000000
H    -4.275000000    -2.026000000    -3.153000000
O     2.258000000     4.838000000    -4.651000000
H     1.952000000     4.169000000    -5.263000000
H     2.052000000     5.668000000    -5.081000000
O    -2.494000000     3.208000000     2.712000000
H    -2.696000000     2.376000000     3.140000000
H    -2.596000000     3.027000000     1.778000000
O     3.728000000    -2.089000000    -3.388000000
H     3.912000000    -2.897000000    -3.867000000
H     2.844000000    -2.212000000    -3.042000000
O     1.244000000     3.167000000    -6.639000000
H     2.040000000     2.680000000    -6.852000000
H     0.580000000     2.810000000    -7.229000000
O    -5.847000000    -0.661000000     6.930000000
H    -5.114000000    -1.094000000     7.368000000
H    -5.531000000    -0.498000000     6.041000000
O    -5.002000000     2.291000000     4.595000000
H    -4.869000000     1.482000000     5.090000000
H    -4.623000000     2.974000000     5.148000000
O     1.232000000    -0.257000000     7.171000000
H     0.683000000     0.482000000     6.910000000
H     1.492000000    -0.665000000     6.345000000
O    -0.839000000     4.530000000    -5.083000000
H    -0.131000000     4.182000000    -5.625000000
H    -1.300000000     3.754000000    -4.764000000
O     1.200000000    -1.550000000     4.796000000
H     0.288000000    -1.486000000     4.514000000
H     1.469000000    -2.432000000     4.538000000
O     5.344000000     0.055000000     2.746000000
H     5.359000000     0.117000000     3.701000000
H     6.265000000     0.089000000     2.489000000
O     1.342000000    -2.974000000    -3.930000000
H     1.867000000    -3.774000000    -3.960000000
H     1.304000000    -2.678000000    -4.839000000
O    -0.691000000    -1.352000000    -7.620000000
H    -1.243000000    -1.831000000    -7.002000000
H    -0.300000000    -2.033000000    -8.169000000
O    -5.990000000    -2.309000000     3.746000000
H    -5.425000000    -1.692000000     4.211000000
H    -5.970000000    -2.013000000     2.836000000
O     4.006000000    -0.196000000     5.270000000
H     3.118000000    -0.009000000     4.963000000
H     3.985000000    -1.121000000     5.514000000
O    -4.658000000     0.207000000    -5.081000000
H    -5.394000000    -0.276000000    -5.458000000
H    -4.324000000    -0.367000000    -4.391000000
O    -2.261000000     3.330000000    -0.082000000
H    -1.483000000     3.750000000     0.285000000
H    -2.025000000     3.142000000    -0.991000000
