161
-3053.23013
C    -0.059000000    -1.339000000     0.589000000
H     0.023000000    -2.382000000     0.883000000
C     1.070000000    -0.457000000     0.738000000
H     1.853000000    -0.728000000     1.441000000
C     0.953000000     0.747000000     0.096000000
C     2.041000000     1.734000000     0.332000000
H     3.049000000     1.339000000     0.472000000
H     2.148000000     2.245000000    -0.627000000
H     1.803000000     2.518000000     1.054000000
C    -0.162000000     1.087000000    -0.630000000
H    -0.119000000     1.998000000    -1.222000000
C    -1.241000000     0.237000000    -0.827000000
H    -2.058000000     0.539000000    -1.477000000
C    -1.220000000    -1.015000000    -0.140000000
C    -2.334000000    -1.970000000    -0.239000000
O    -3.313000000    -1.631000000    -0.897000000
O    -2.440000000    -2.925000000     0.461000000
O     2.885000000    -3.597000000    -1.082000000
H     2.642000000    -4.195000000    -1.789000000
H     2.436000000    -2.779000000    -1.296000000
O    -5.814000000     2.324000000    -0.617000000
H    -5.811000000     2.738000000    -1.480000000
H    -6.632000000     1.828000000    -0.592000000
O    -1.064000000     4.562000000    -0.013000000
H    -2.003000000     4.719000000    -0.109000000
H    -1.003000000     3.856000000     0.631000000
O    -5.238000000     0.030000000    -5.044000000
H    -5.836000000     0.778000000    -5.057000000
H    -5.071000000    -0.126000000    -4.115000000
O     5.115000000     2.615000000    -2.261000000
H     5.718000000     3.277000000    -2.600000000
H     4.783000000     2.171000000    -3.041000000
O     1.060000000    -0.855000000     4.173000000
H     0.556000000    -0.063000000     4.361000000
H     1.906000000    -0.532000000     3.863000000
O    -1.858000000     2.305000000     1.488000000
H    -2.736000000     2.005000000     1.255000000
H    -1.277000000     1.837000000     0.888000000
O     1.339000000     6.275000000     4.746000000
H     1.997000000     5.950000000     4.132000000
H     1.555000000     7.200000000     4.862000000
O    -2.358000000    -5.310000000     4.345000000
H    -1.785000000    -4.605000000     4.042000000
H    -1.797000000    -5.852000000     4.900000000
O    -3.341000000    -2.864000000    -3.196000000
H    -3.053000000    -3.745000000    -2.958000000
H    -3.307000000    -2.371000000    -2.377000000
O    -5.283000000    -5.640000000    -0.061000000
H    -4.852000000    -6.143000000     0.630000000
H    -5.398000000    -4.766000000     0.315000000
O    -3.128000000    -5.332000000    -1.566000000
H    -3.954000000    -5.245000000    -1.090000000
H    -2.454000000    -5.272000000    -0.890000000
O    -0.876000000    -4.839000000     0.208000000
H    -1.277000000    -3.992000000     0.400000000
H    -0.111000000    -4.878000000     0.783000000
O     1.252000000    -1.352000000    -2.439000000
H     0.520000000    -1.546000000    -3.025000000
H     0.873000000    -0.799000000    -1.756000000
O     4.042000000    -0.999000000    -2.596000000
H     4.163000000    -0.207000000    -2.072000000
H     3.093000000    -1.078000000    -2.694000000
O    -5.573000000    -2.995000000     0.819000000
H    -5.813000000    -2.194000000     1.285000000
H    -4.625000000    -2.930000000     0.703000000
O     0.750000000     6.125000000    -1.110000000
H     0.288000000     5.347000000    -0.795000000
H     0.070000000     6.796000000    -1.178000000
O     5.274000000    -1.109000000     2.057000000
H     4.534000000    -0.627000000     2.424000000
H     4.998000000    -2.025000000     2.080000000
O    -0.830000000     1.357000000     4.244000000
H    -0.619000000     2.265000000     4.463000000
H    -1.279000000     1.412000000     3.401000000
O     1.440000000    -3.166000000     5.939000000
H     1.451000000    -2.499000000     5.253000000
H     1.976000000    -3.878000000     5.589000000
O     3.638000000    -5.207000000     1.043000000
H     3.168000000    -4.586000000     0.485000000
H     4.274000000    -5.619000000     0.459000000
O     6.039000000     4.220000000     1.301000000
H     6.323000000     3.310000000     1.382000000
H     5.382000000     4.205000000     0.604000000
O     3.218000000     5.482000000     2.991000000
H     3.956000000     4.883000000     3.105000000
H     3.194000000     5.657000000     2.050000000
O     3.989000000    -3.991000000     3.864000000
H     4.264000000    -4.400000000     3.043000000
H     4.628000000    -3.294000000     4.009000000
O    -3.353000000    -2.382000000     2.896000000
H    -3.287000000    -2.573000000     1.961000000
H    -2.469000000    -2.529000000     3.234000000
O     3.627000000     5.630000000    -0.113000000
H     2.754000000     5.732000000    -0.491000000
H     3.997000000     6.512000000    -0.123000000
O    -7.174000000    -0.117000000    -2.547000000
H    -7.176000000    -0.878000000    -1.965000000
H    -6.280000000     0.222000000    -2.494000000
O     0.906000000    -5.217000000     2.225000000
H     0.632000000    -5.678000000     3.018000000
H     1.748000000    -5.612000000     1.997000000
O    -4.903000000     0.548000000     3.307000000
H    -4.531000000     0.569000000     2.425000000
H    -5.776000000     0.174000000     3.189000000
O    -3.873000000     0.699000000     0.654000000
H    -4.499000000     1.243000000     0.175000000
H    -3.930000000    -0.158000000     0.231000000
O     6.659000000    -0.078000000    -0.765000000
H     7.236000000     0.684000000    -0.714000000
H     6.459000000    -0.288000000     0.147000000
O    -6.693000000    -3.791000000    -4.214000000
H    -6.089000000    -3.367000000    -3.604000000
H    -6.946000000    -4.603000000    -3.774000000
O    -0.836000000     1.624000000    -4.115000000
H    -0.876000000     0.670000000    -4.044000000
H     0.091000000     1.815000000    -4.258000000
O    -2.996000000     1.682000000    -5.978000000
H    -3.578000000     0.940000000    -5.816000000
H    -2.124000000     1.355000000    -5.757000000
O    -5.298000000    -3.428000000     4.682000000
H    -4.765000000    -3.516000000     5.472000000
H    -4.664000000    -3.268000000     3.982000000
O    -5.622000000     3.197000000    -3.639000000
H    -4.675000000     3.281000000    -3.525000000
H    -5.780000000     3.466000000    -4.544000000
O     5.773000000    -2.916000000    -1.012000000
H     4.850000000    -3.160000000    -0.950000000
H     5.781000000    -1.970000000    -0.868000000
O     5.958000000     5.947000000    -1.695000000
H     6.388000000     5.250000000    -2.191000000
H     5.299000000     5.495000000    -1.168000000
O    -3.083000000     2.690000000    -2.886000000
H    -2.971000000     3.590000000    -2.581000000
H    -2.371000000     2.559000000    -3.512000000
O    -5.795000000    -2.465000000    -1.786000000
H    -5.599000000    -2.629000000    -0.864000000
H    -4.937000000    -2.379000000    -2.202000000
O    -1.831000000     4.978000000     2.900000000
H    -1.455000000     4.631000000     3.709000000
H    -2.719000000     4.623000000     2.877000000
O    -0.729000000    -3.112000000     3.329000000
H     0.104000000    -3.496000000     3.055000000
H    -0.480000000    -2.360000000     3.866000000
O     0.730000000    -6.208000000    -1.641000000
H     0.026000000    -5.720000000    -1.215000000
H     0.493000000    -7.128000000    -1.517000000
O     3.418000000     0.734000000     3.356000000
H     3.726000000     0.901000000     4.247000000
H     3.440000000     1.592000000     2.931000000
O    -4.384000000     0.388000000    -2.352000000
H    -3.853000000     1.154000000    -2.567000000
H    -3.820000000    -0.145000000    -1.792000000
O     1.923000000     2.468000000    -4.609000000
H     1.715000000     2.614000000    -5.532000000
H     2.708000000     1.920000000    -4.624000000
O    -0.934000000    -1.443000000    -3.939000000
H    -0.524000000    -1.971000000    -4.624000000
H    -1.832000000    -1.770000000    -3.889000000
O    -3.314000000    -5.608000000     1.799000000
H    -2.545000000    -5.562000000     1.231000000
H    -3.024000000    -5.221000000     2.626000000
