161
-3055.23197
C    -1.188000000    -0.632000000    -0.594000000
H    -1.870000000    -1.160000000    -1.256000000
C    -0.452000000     0.331000000    -1.174000000
H    -0.733000000     0.529000000    -2.206000000
C     0.594000000     0.966000000    -0.510000000
C     1.326000000     2.140000000    -1.013000000
H     0.929000000     3.140000000    -0.825000000
H     2.362000000     2.155000000    -0.670000000
H     1.407000000     2.085000000    -2.101000000
C     0.928000000     0.478000000     0.763000000
H     1.583000000     1.065000000     1.403000000
C     0.218000000    -0.603000000     1.355000000
H     0.448000000    -0.868000000     2.384000000
C    -0.850000000    -1.149000000     0.673000000
C    -1.441000000    -2.452000000     1.171000000
O    -1.029000000    -2.941000000     2.195000000
O    -2.226000000    -3.080000000     0.398000000
O     4.410000000     5.024000000    -0.667000000
H     3.457000000     5.063000000    -0.585000000
H     4.585000000     5.301000000    -1.566000000
O    -6.193000000    -4.392000000    -2.066000000
H    -5.899000000    -4.906000000    -1.314000000
H    -5.770000000    -3.541000000    -1.956000000
O    -2.606000000    -6.748000000     2.460000000
H    -2.232000000    -7.256000000     1.740000000
H    -1.954000000    -6.070000000     2.639000000
O    -6.043000000    -1.368000000     1.332000000
H    -6.371000000    -2.264000000     1.257000000
H    -6.157000000    -1.148000000     2.257000000
O     0.669000000     0.588000000     5.332000000
H     1.387000000     0.275000000     4.783000000
H     1.100000000     1.074000000     6.036000000
O    -5.608000000     0.322000000    -2.965000000
H    -5.843000000     1.217000000    -3.209000000
H    -5.552000000    -0.147000000    -3.798000000
O    -2.626000000    -2.689000000    -3.659000000
H    -3.208000000    -2.183000000    -4.225000000
H    -3.148000000    -2.869000000    -2.877000000
O     1.694000000     2.608000000     3.347000000
H     2.088000000     1.741000000     3.443000000
H     2.150000000     2.998000000     2.602000000
O     2.105000000    -5.282000000     0.923000000
H     2.391000000    -5.378000000     0.014000000
H     2.384000000    -4.400000000     1.170000000
O     6.753000000    -0.612000000    -1.799000000
H     7.116000000    -0.915000000    -2.632000000
H     5.820000000    -0.490000000    -1.975000000
O     2.366000000    -3.735000000     4.707000000
H     2.744000000    -3.272000000     5.455000000
H     2.885000000    -4.536000000     4.634000000
O    -2.014000000     2.479000000    -5.214000000
H    -1.458000000     1.703000000    -5.136000000
H    -1.421000000     3.168000000    -5.515000000
O    -4.649000000    -3.854000000     4.534000000
H    -4.082000000    -3.083000000     4.559000000
H    -4.554000000    -4.193000000     3.644000000
O     0.503000000    -5.764000000    -2.426000000
H     0.469000000    -6.720000000    -2.398000000
H    -0.372000000    -5.485000000    -2.156000000
O    -1.311000000     4.305000000     0.710000000
H    -1.873000000     3.610000000     0.368000000
H    -1.246000000     4.120000000     1.647000000
O     0.187000000     6.734000000    -3.480000000
H     0.320000000     7.678000000    -3.563000000
H    -0.353000000     6.637000000    -2.695000000
O    -6.646000000    -4.028000000     1.134000000
H    -5.746000000    -4.202000000     1.410000000
H    -7.167000000    -4.697000000     1.578000000
O     2.021000000    -0.476000000    -5.962000000
H     2.516000000    -0.952000000    -5.296000000
H     2.669000000    -0.258000000    -6.632000000
O    -4.161000000    -4.504000000     1.794000000
H    -3.437000000    -3.941000000     1.521000000
H    -3.809000000    -5.392000000     1.736000000
O     4.556000000     4.626000000     3.352000000
H     4.783000000     4.564000000     2.424000000
H     4.902000000     3.821000000     3.737000000
O    -0.436000000    -5.358000000     1.289000000
H     0.521000000    -5.351000000     1.281000000
H    -0.679000000    -4.498000000     1.633000000
O     5.280000000    -1.242000000     2.404000000
H     5.993000000    -1.695000000     2.852000000
H     5.718000000    -0.616000000     1.827000000
O    -0.123000000    -4.568000000     4.096000000
H     0.645000000    -3.997000000     4.130000000
H    -0.678000000    -4.182000000     3.418000000
O     5.508000000     3.121000000     1.044000000
H     5.189000000     3.575000000     0.264000000
H     5.754000000     2.251000000     0.731000000
O     1.835000000     5.596000000    -0.292000000
H     1.018000000     5.182000000    -0.012000000
H     1.922000000     6.363000000     0.276000000
O    -3.703000000     0.914000000    -6.519000000
H    -4.498000000     1.310000000    -6.875000000
H    -3.381000000     1.553000000    -5.883000000
O    -1.399000000     6.389000000    -1.269000000
H    -1.313000000     5.680000000    -0.631000000
H    -1.228000000     7.186000000    -0.766000000
O    -4.146000000     4.347000000    -2.072000000
H    -3.671000000     4.696000000    -2.826000000
H    -3.575000000     3.661000000    -1.726000000
O    -4.241000000    -2.477000000    -1.315000000
H    -4.452000000    -1.550000000    -1.425000000
H    -3.650000000    -2.500000000    -0.562000000
O     2.375000000     2.398000000    -5.324000000
H     2.838000000     2.315000000    -6.157000000
H     2.329000000     1.503000000    -4.985000000
O    -2.699000000    -5.187000000    -4.871000000
H    -2.603000000    -4.375000000    -4.373000000
H    -2.039000000    -5.774000000    -4.501000000
O    -2.044000000    -5.240000000    -1.200000000
H    -1.914000000    -5.666000000    -0.353000000
H    -2.251000000    -4.331000000    -0.983000000
O     3.948000000    -1.103000000    -4.370000000
H     4.197000000    -2.009000000    -4.552000000
H     4.750000000    -0.600000000    -4.511000000
O     5.192000000     3.968000000    -4.817000000
H     4.269000000     4.078000000    -4.590000000
H     5.544000000     4.858000000    -4.822000000
O    -1.475000000     2.916000000     3.096000000
H    -0.643000000     2.447000000     3.162000000
H    -2.140000000     2.249000000     3.265000000
O    -2.016000000     0.474000000     4.082000000
H    -2.427000000    -0.373000000     4.254000000
H    -1.274000000     0.506000000     4.686000000
O     2.861000000     0.016000000     3.713000000
H     3.486000000    -0.412000000     3.127000000
H     3.394000000     0.324000000     4.446000000
O    -2.807000000     2.239000000    -0.482000000
H    -2.089000000     1.635000000    -0.670000000
H    -3.302000000     1.814000000     0.218000000
O     2.715000000     5.185000000    -4.086000000
H     2.262000000     4.343000000    -4.044000000
H     2.073000000     5.819000000    -3.765000000
O     4.061000000     0.422000000    -2.211000000
H     3.918000000     0.046000000    -3.080000000
H     3.244000000     0.256000000    -1.741000000
O    -3.713000000     0.472000000     1.518000000
H    -3.402000000     0.374000000     2.418000000
H    -4.525000000    -0.033000000     1.489000000
O     2.946000000    -2.921000000     1.971000000
H     2.640000000    -2.875000000     2.877000000
H     3.582000000    -2.210000000     1.897000000
O    -0.281000000     0.124000000    -4.750000000
H    -0.471000000    -0.556000000    -4.104000000
H     0.347000000    -0.282000000    -5.347000000
O     1.038000000    -7.062000000     4.151000000
H     0.760000000    -6.151000000     4.063000000
H     1.907000000    -7.010000000     4.548000000
O     1.821000000    -1.960000000    -1.756000000
H     1.221000000    -2.213000000    -2.458000000
H     1.251000000    -1.630000000    -1.061000000
O    -2.639000000    -2.158000000     4.331000000
H    -2.204000000    -2.695000000     4.993000000
H    -2.105000000    -2.268000000     3.544000000
O     0.187000000     1.489000000    -7.407000000
H     0.682000000     1.311000000    -6.607000000
H    -0.409000000     0.744000000    -7.490000000
O     0.114000000    -2.701000000    -3.805000000
H    -0.827000000    -2.750000000    -3.640000000
H     0.198000000    -2.826000000    -4.750000000
