161
-3073.10862
C    -1.130000000    -0.894000000    -0.378000000
H    -1.983000000    -1.463000000    -0.738000000
C    -0.488000000     0.000000000    -1.237000000
H    -0.711000000     0.106000000    -2.296000000
C     0.622000000     0.736000000    -0.754000000
C     1.310000000     1.807000000    -1.620000000
H     0.622000000     2.617000000    -1.874000000
H     2.232000000     2.189000000    -1.177000000
H     1.462000000     1.365000000    -2.607000000
C     1.014000000     0.613000000     0.591000000
H     1.764000000     1.270000000     1.024000000
C     0.396000000    -0.344000000     1.414000000
H     0.774000000    -0.468000000     2.426000000
C    -0.705000000    -1.003000000     0.940000000
C    -1.495000000    -1.959000000     1.854000000
O    -1.106000000    -2.200000000     3.003000000
O    -2.577000000    -2.370000000     1.425000000
O     4.995000000     3.957000000    -1.452000000
H     4.294000000     4.034000000    -0.805000000
H     4.846000000     4.686000000    -2.055000000
O    -6.225000000     0.390000000    -0.993000000
H    -6.926000000    -0.236000000    -0.811000000
H    -5.953000000     0.191000000    -1.889000000
O    -4.667000000    -5.202000000    -1.158000000
H    -3.931000000    -5.335000000    -0.560000000
H    -5.135000000    -4.448000000    -0.799000000
O    -6.985000000    -1.800000000     0.614000000
H    -6.756000000    -2.719000000     0.753000000
H    -7.190000000    -1.469000000     1.488000000
O     3.211000000    -0.737000000     4.808000000
H     3.239000000     0.056000000     4.271000000
H     2.354000000    -1.121000000     4.622000000
O    -5.403000000     0.203000000    -3.715000000
H    -4.588000000    -0.090000000    -4.121000000
H    -5.961000000     0.452000000    -4.452000000
O    -3.510000000     3.641000000    -5.029000000
H    -4.076000000     3.454000000    -4.281000000
H    -2.869000000     2.929000000    -5.029000000
O    -5.409000000    -2.990000000    -3.821000000
H    -4.968000000    -2.539000000    -4.541000000
H    -5.020000000    -2.615000000    -3.030000000
O     1.983000000     3.016000000     3.283000000
H     2.654000000     2.342000000     3.175000000
H     2.370000000     3.803000000     2.900000000
O     0.309000000    -4.928000000    -0.556000000
H     0.828000000    -4.709000000    -1.329000000
H     0.877000000    -4.710000000     0.184000000
O    -1.078000000     2.580000000    -4.661000000
H    -1.038000000     2.605000000    -3.704000000
H    -0.502000000     3.292000000    -4.942000000
O    -4.969000000    -5.080000000     5.445000000
H    -4.350000000    -5.271000000     6.150000000
H    -4.417000000    -4.930000000     4.677000000
O     1.534000000    -4.198000000    -3.297000000
H     2.422000000    -3.875000000    -3.454000000
H     0.967000000    -3.467000000    -3.543000000
O    -0.705000000     2.510000000     2.341000000
H    -0.282000000     2.037000000     1.624000000
H    -0.368000000     2.094000000     3.135000000
O     1.255000000     5.609000000    -3.391000000
H     2.184000000     5.566000000    -3.163000000
H     0.918000000     6.347000000    -2.883000000
O    -6.451000000    -4.564000000     1.033000000
H    -5.788000000    -4.374000000     1.696000000
H    -6.920000000    -5.326000000     1.374000000
O    -3.579000000     1.537000000    -0.232000000
H    -4.335000000     1.131000000    -0.655000000
H    -3.345000000     0.932000000     0.472000000
O    -4.371000000    -4.155000000     2.771000000
H    -3.884000000    -3.342000000     2.632000000
H    -3.797000000    -4.840000000     2.428000000
O    -2.450000000    -4.778000000     0.719000000
H    -1.500000000    -4.873000000     0.786000000
H    -2.617000000    -3.866000000     0.959000000
O     4.209000000    -1.740000000     1.107000000
H     4.944000000    -1.727000000     1.719000000
H     3.708000000    -0.952000000     1.318000000
O     0.042000000    -4.380000000     3.663000000
H     0.808000000    -4.270000000     3.099000000
H    -0.520000000    -3.634000000     3.452000000
O     4.729000000     1.242000000     0.089000000
H     5.122000000     0.718000000    -0.608000000
H     4.282000000     1.954000000    -0.369000000
O     2.574000000     4.079000000     0.547000000
H     1.661000000     4.334000000     0.676000000
H     3.033000000     4.441000000     1.306000000
O     0.245000000     5.067000000     1.786000000
H    -0.124000000     4.191000000     1.898000000
H    -0.116000000     5.573000000     2.514000000
O    -0.123000000    -6.733000000     5.599000000
H     0.358000000    -6.186000000     6.220000000
H    -0.342000000    -6.142000000     4.879000000
O    -1.931000000     3.365000000    -2.030000000
H    -1.532000000     4.116000000    -1.592000000
H    -2.233000000     2.803000000    -1.316000000
O    -4.459000000    -2.163000000    -0.840000000
H    -5.121000000    -1.538000000    -0.545000000
H    -3.703000000    -1.996000000    -0.277000000
O     2.161000000     1.683000000    -5.263000000
H     1.422000000     1.458000000    -5.828000000
H     2.486000000     0.840000000    -4.946000000
O    -2.164000000    -4.174000000    -2.413000000
H    -2.032000000    -4.390000000    -1.490000000
H    -3.113000000    -4.094000000    -2.507000000
O     0.444000000     1.572000000     4.937000000
H     0.861000000     2.210000000     4.358000000
H     0.606000000     1.906000000     5.819000000
O    -0.936000000     5.609000000    -0.611000000
H    -0.590000000     5.473000000     0.271000000
H    -1.303000000     6.493000000    -0.590000000
O     0.797000000    -4.004000000     6.362000000
H     0.465000000    -4.045000000     5.465000000
H     0.394000000    -3.219000000     6.731000000
O     3.823000000     0.906000000     2.724000000
H     4.032000000     1.263000000     1.861000000
H     4.669000000     0.838000000     3.167000000
O    -3.517000000     0.230000000     2.598000000
H    -3.118000000    -0.569000000     2.255000000
H    -3.374000000     0.183000000     3.543000000
O    -0.295000000    -1.256000000     7.431000000
H    -0.530000000    -0.433000000     7.860000000
H    -0.198000000    -1.026000000     6.507000000
O     4.032000000     4.006000000    -4.760000000
H     4.985000000     3.933000000    -4.815000000
H     3.714000000     3.118000000    -4.923000000
O     5.880000000     0.055000000    -2.700000000
H     6.132000000    -0.010000000    -3.621000000
H     5.131000000    -0.536000000    -2.615000000
O    -3.577000000     0.105000000     5.669000000
H    -2.891000000     0.593000000     6.126000000
H    -4.335000000     0.155000000     6.251000000
O    -2.861000000     3.625000000     1.297000000
H    -2.223000000     3.107000000     1.789000000
H    -3.304000000     2.988000000     0.736000000
O    -2.700000000    -2.523000000     5.584000000
H    -3.359000000    -1.833000000     5.662000000
H    -2.101000000    -2.207000000     4.908000000
O     4.081000000     6.108000000    -2.945000000
H     4.281000000     5.406000000    -3.564000000
H     4.018000000     6.895000000    -3.487000000
O     2.033000000    -4.400000000     1.585000000
H     2.637000000    -5.122000000     1.408000000
H     2.422000000    -3.940000000     2.330000000
O     1.668000000    -0.897000000    -4.512000000
H     2.225000000    -1.190000000    -3.791000000
H     0.834000000    -0.679000000    -4.096000000
O     3.051000000    -1.002000000    -1.917000000
H     2.387000000    -0.535000000    -1.410000000
H     3.393000000    -1.662000000    -1.314000000
O     0.319000000    -1.199000000     4.770000000
H     0.268000000    -0.250000000     4.661000000
H    -0.174000000    -1.552000000     4.029000000
O    -0.313000000     1.056000000    -6.867000000
H    -0.934000000     1.068000000    -7.596000000
H    -0.755000000     1.539000000    -6.168000000
O     0.939000000     4.133000000    -5.557000000
H     1.590000000     3.444000000    -5.420000000
H     1.017000000     4.693000000    -4.785000000
O    -0.880000000    -1.770000000    -3.787000000
H    -1.125000000    -2.510000000    -3.231000000
H    -1.616000000    -1.668000000    -4.389000000
