161
-3056.27589
C     0.028000000    -1.476000000    -0.178000000
H     0.168000000    -2.530000000    -0.407000000
C     0.827000000    -0.601000000    -0.913000000
H     1.648000000    -0.825000000    -1.589000000
C     0.701000000     0.786000000    -0.622000000
C     1.495000000     1.797000000    -1.339000000
H     2.310000000     1.299000000    -1.868000000
H     0.811000000     2.315000000    -2.014000000
H     1.941000000     2.538000000    -0.672000000
C    -0.169000000     1.187000000     0.339000000
H    -0.220000000     2.258000000     0.516000000
C    -0.992000000     0.299000000     1.042000000
H    -1.575000000     0.673000000     1.880000000
C    -0.963000000    -1.051000000     0.758000000
C    -1.797000000    -1.967000000     1.521000000
O    -2.164000000    -1.715000000     2.675000000
O    -2.046000000    -2.982000000     0.877000000
O    -5.139000000     0.930000000     0.624000000
H    -5.713000000     0.209000000     0.364000000
H    -4.769000000     0.652000000     1.461000000
O     4.716000000     2.989000000    -5.710000000
H     4.912000000     2.815000000    -4.789000000
H     3.928000000     2.475000000    -5.888000000
O     0.059000000     6.121000000    -3.096000000
H    -0.761000000     5.634000000    -3.016000000
H     0.711000000     5.458000000    -3.321000000
O    -1.443000000    -5.527000000     1.733000000
H    -2.203000000    -5.725000000     2.280000000
H    -1.514000000    -4.589000000     1.554000000
O     2.265000000    -7.317000000    -0.946000000
H     1.804000000    -6.552000000    -0.602000000
H     1.574000000    -7.957000000    -1.116000000
O    -1.176000000    -1.938000000    -3.147000000
H    -0.583000000    -1.611000000    -2.470000000
H    -0.598000000    -2.216000000    -3.858000000
O     0.647000000     6.252000000     0.349000000
H     1.196000000     6.877000000     0.822000000
H     0.434000000     6.694000000    -0.472000000
O     3.832000000    -1.933000000    -0.441000000
H     4.481000000    -1.333000000    -0.810000000
H     3.168000000    -2.018000000    -1.125000000
O     0.628000000    -4.059000000     3.140000000
H    -0.287000000    -3.906000000     3.376000000
H     0.622000000    -4.909000000     2.698000000
O    -1.061000000     4.815000000     4.441000000
H    -0.310000000     4.579000000     3.897000000
H    -0.747000000     5.542000000     4.980000000
O     5.415000000     0.667000000    -0.999000000
H     6.218000000     0.173000000    -1.159000000
H     5.614000000     1.210000000    -0.237000000
O     2.496000000     1.644000000    -4.444000000
H     3.046000000     0.906000000    -4.179000000
H     1.778000000     1.244000000    -4.935000000
O     1.076000000    -2.668000000    -4.930000000
H     1.104000000    -3.609000000    -5.106000000
H     1.540000000    -2.273000000    -5.668000000
O    -2.798000000     2.385000000     4.397000000
H    -2.302000000     1.890000000     5.050000000
H    -2.414000000     3.261000000     4.419000000
O    -3.636000000    -3.557000000     4.040000000
H    -3.171000000    -2.893000000     3.530000000
H    -4.213000000    -3.056000000     4.616000000
O     1.303000000     4.693000000     2.549000000
H     1.435000000     4.964000000     1.641000000
H     2.004000000     4.062000000     2.715000000
O    -1.460000000    -4.894000000     4.935000000
H    -1.576000000    -5.842000000     4.999000000
H    -2.293000000    -4.573000000     4.591000000
O     2.285000000     2.158000000     3.009000000
H     3.011000000     1.575000000     2.789000000
H     1.520000000     1.753000000     2.599000000
O    -2.356000000     2.200000000    -5.898000000
H    -2.578000000     3.110000000    -5.704000000
H    -2.410000000     1.754000000    -5.052000000
O    -4.514000000    -4.113000000     0.776000000
H    -4.817000000    -3.441000000     0.166000000
H    -3.640000000    -3.823000000     1.038000000
O     4.007000000     0.098000000     2.249000000
H     4.658000000    -0.064000000     1.566000000
H     3.572000000    -0.746000000     2.370000000
O     4.051000000     6.181000000    -2.548000000
H     4.825000000     6.603000000    -2.921000000
H     4.169000000     6.259000000    -1.601000000
O    -6.643000000    -4.356000000     3.037000000
H    -5.861000000    -3.973000000     2.640000000
H    -6.468000000    -4.337000000     3.978000000
O     2.320000000    -2.352000000     5.017000000
H     2.497000000    -2.416000000     4.078000000
H     1.374000000    -2.217000000     5.073000000
O     0.919000000    -5.063000000    -0.212000000
H     0.038000000    -4.859000000    -0.525000000
H     1.488000000    -4.876000000    -0.959000000
O     1.861000000     4.225000000    -3.508000000
H     2.659000000     4.462000000    -3.036000000
H     1.955000000     3.289000000    -3.682000000
O    -1.292000000    -7.701000000     0.011000000
H    -1.377000000    -7.028000000     0.686000000
H    -1.712000000    -7.322000000    -0.761000000
O    -1.558000000    -4.078000000    -1.550000000
H    -1.268000000    -3.394000000    -2.154000000
H    -2.024000000    -3.605000000    -0.860000000
O    -5.506000000    -6.781000000     0.799000000
H    -4.943000000    -6.023000000     0.636000000
H    -6.356000000    -6.404000000     1.023000000
O    -5.321000000     3.349000000     3.889000000
H    -4.530000000     2.875000000     4.145000000
H    -5.300000000     4.150000000     4.413000000
O    -3.001000000    -4.916000000    -3.916000000
H    -2.129000000    -5.207000000    -4.185000000
H    -2.894000000    -4.655000000    -3.001000000
O     5.764000000     2.254000000    -3.055000000
H     6.527000000     2.707000000    -2.697000000
H     5.404000000     1.768000000    -2.313000000
O     5.636000000    -0.174000000    -4.284000000
H     5.995000000     0.692000000    -4.088000000
H     6.404000000    -0.740000000    -4.360000000
O     4.695000000     3.860000000     3.311000000
H     4.041000000     3.169000000     3.203000000
H     4.668000000     4.072000000     4.244000000
O    -1.068000000     0.808000000     6.233000000
H    -1.502000000     0.975000000     7.070000000
H    -0.308000000     1.390000000     6.237000000
O    -1.732000000     4.686000000     0.479000000
H    -0.918000000     5.153000000     0.665000000
H    -2.281000000     4.844000000     1.247000000
O     3.102000000    -2.562000000     2.078000000
H     3.317000000    -2.296000000     1.184000000
H     2.438000000    -3.243000000     1.973000000
O    -3.412000000    -6.664000000    -1.625000000
H    -4.047000000    -6.538000000    -2.330000000
H    -3.070000000    -5.787000000    -1.451000000
O    -2.212000000     4.740000000    -2.324000000
H    -2.429000000     3.820000000    -2.476000000
H    -2.063000000     4.798000000    -1.380000000
O    -5.697000000     0.497000000     4.915000000
H    -6.110000000     1.084000000     4.283000000
H    -4.978000000     0.090000000     4.431000000
O     3.855000000    -2.615000000    -4.284000000
H     4.287000000    -1.813000000    -3.990000000
H     3.347000000    -2.347000000    -5.050000000
O    -2.918000000     0.460000000    -3.601000000
H    -2.271000000    -0.242000000    -3.533000000
H    -2.988000000     0.809000000    -2.712000000
O    -0.172000000    -1.340000000     4.862000000
H    -0.612000000    -1.462000000     4.020000000
H    -0.612000000    -0.587000000     5.256000000
O     2.353000000    -4.315000000    -2.463000000
H     2.188000000    -3.512000000    -2.958000000
H     3.224000000    -4.594000000    -2.744000000
O    -3.973000000     0.290000000     2.765000000
H    -3.604000000     0.952000000     3.350000000
H    -3.291000000    -0.379000000     2.699000000
O    -3.505000000     1.767000000    -1.219000000
H    -4.251000000     1.361000000    -0.778000000
H    -2.845000000     1.865000000    -0.533000000
O    -0.178000000    -3.375000000     6.721000000
H    -0.228000000    -2.505000000     6.324000000
H    -0.687000000    -3.935000000     6.135000000
O     0.221000000     1.120000000    -6.022000000
H    -0.488000000     1.757000000    -6.107000000
H    -0.209000000     0.323000000    -5.712000000
