161
-3062.54475
C    -0.807000000    -1.102000000    -0.540000000
H    -1.279000000    -2.023000000    -0.871000000
C     0.540000000    -1.150000000    -0.404000000
H     1.054000000    -2.082000000    -0.623000000
C     1.196000000    -0.052000000     0.140000000
C     2.653000000    -0.062000000     0.540000000
H     3.040000000     0.944000000     0.713000000
H     2.691000000    -0.600000000     1.490000000
H     3.291000000    -0.645000000    -0.127000000
C     0.522000000     1.139000000     0.281000000
H     1.081000000     2.044000000     0.502000000
C    -0.828000000     1.191000000     0.068000000
H    -1.327000000     2.153000000     0.156000000
C    -1.525000000     0.077000000    -0.298000000
C    -3.052000000     0.064000000    -0.374000000
O    -3.635000000     1.077000000    -0.021000000
O    -3.619000000    -0.975000000    -0.634000000
O     3.588000000     3.814000000     3.976000000
H     3.429000000     2.901000000     3.736000000
H     4.120000000     4.161000000     3.260000000
O    -5.512000000     5.391000000     2.698000000
H    -5.665000000     4.483000000     2.436000000
H    -6.030000000     5.909000000     2.081000000
O    -7.761000000     1.614000000    -0.081000000
H    -8.024000000     0.727000000     0.166000000
H    -8.583000000     2.100000000    -0.141000000
O    -3.110000000    -0.376000000    -3.347000000
H    -2.628000000    -0.913000000    -3.976000000
H    -3.128000000    -0.902000000    -2.548000000
O    -5.219000000     0.368000000     2.017000000
H    -4.448000000     0.160000000     2.545000000
H    -4.867000000     0.573000000     1.150000000
O    -5.527000000     2.421000000    -1.343000000
H    -4.861000000     2.027000000    -0.780000000
H    -6.353000000     2.053000000    -1.030000000
O    -6.445000000     2.820000000     1.979000000
H    -6.268000000     2.021000000     2.475000000
H    -6.883000000     2.517000000     1.184000000
O     0.456000000     0.836000000    -2.734000000
H     0.296000000     0.676000000    -1.804000000
H     0.851000000     0.024000000    -3.052000000
O    -2.142000000    -2.680000000     1.514000000
H    -2.739000000    -2.606000000     0.770000000
H    -2.716000000    -2.715000000     2.279000000
O    -6.111000000    -0.710000000    -1.457000000
H    -6.127000000    -0.929000000    -2.388000000
H    -5.182000000    -0.727000000    -1.223000000
O    -3.695000000    -3.282000000     3.537000000
H    -4.164000000    -3.163000000     2.711000000
H    -4.359000000    -3.143000000     4.212000000
O     1.795000000    -1.155000000    -3.920000000
H     1.567000000    -1.088000000    -4.847000000
H     2.750000000    -1.219000000    -3.912000000
O    -6.738000000    -4.966000000    -1.968000000
H    -5.796000000    -4.829000000    -2.071000000
H    -7.122000000    -4.099000000    -2.098000000
O     7.708000000    -1.294000000    -0.446000000
H     7.928000000    -1.887000000    -1.165000000
H     7.150000000    -0.627000000    -0.848000000
O     4.318000000     2.680000000    -2.017000000
H     4.793000000     3.259000000    -2.613000000
H     3.419000000     2.686000000    -2.343000000
O    -1.206000000     2.709000000     4.553000000
H    -0.558000000     2.917000000     3.881000000
H    -2.010000000     3.131000000     4.250000000
O    -4.653000000     1.861000000    -3.868000000
H    -4.124000000     1.096000000    -3.641000000
H    -5.217000000     1.996000000    -3.106000000
O     3.508000000     3.935000000     0.570000000
H     3.706000000     3.279000000    -0.098000000
H     3.117000000     4.661000000     0.084000000
O    -0.299000000     1.804000000    -5.179000000
H    -0.084000000     1.261000000    -4.421000000
H    -0.636000000     2.617000000    -4.803000000
O     5.393000000     4.586000000     2.204000000
H     6.130000000     4.053000000     1.907000000
H     4.780000000     4.578000000     1.469000000
O    -2.560000000     0.094000000     3.091000000
H    -2.234000000     0.941000000     3.394000000
H    -1.776000000    -0.450000000     3.011000000
O     0.048000000    -3.954000000     1.263000000
H    -0.831000000    -3.609000000     1.422000000
H     0.044000000    -4.206000000     0.340000000
O     1.159000000    -1.113000000     6.119000000
H     1.818000000    -1.594000000     6.619000000
H     1.568000000    -0.268000000     5.934000000
O    -4.262000000    -0.270000000     5.115000000
H    -3.947000000    -0.921000000     5.742000000
H    -3.584000000    -0.240000000     4.440000000
O     0.112000000     5.678000000    -2.428000000
H    -0.733000000     5.745000000    -2.871000000
H    -0.093000000     5.295000000    -1.576000000
O     2.111000000     1.508000000     3.551000000
H     1.452000000     0.897000000     3.220000000
H     1.705000000     2.370000000     3.462000000
O     4.081000000    -3.001000000     3.895000000
H     3.485000000    -3.379000000     3.248000000
H     4.922000000    -3.423000000     3.721000000
O     6.222000000     0.903000000    -1.446000000
H     5.445000000     1.458000000    -1.373000000
H     6.464000000     0.950000000    -2.371000000
O    -8.200000000    -1.270000000     0.493000000
H    -7.435000000    -1.269000000    -0.082000000
H    -7.837000000    -1.365000000     1.374000000
O    -4.964000000    -2.589000000     1.261000000
H    -5.061000000    -2.871000000     0.351000000
H    -4.970000000    -1.633000000     1.217000000
O    -4.052000000    -3.690000000    -1.267000000
H    -3.958000000    -2.737000000    -1.266000000
H    -3.828000000    -3.951000000    -2.160000000
O     4.098000000    -2.643000000    -3.988000000
H     4.080000000    -3.350000000    -4.634000000
H     4.405000000    -3.061000000    -3.184000000
O     3.424000000    -2.437000000     6.732000000
H     4.226000000    -2.891000000     6.989000000
H     3.467000000    -2.395000000     5.777000000
O     0.309000000     3.780000000     2.518000000
H    -0.217000000     3.947000000     1.736000000
H     1.008000000     4.433000000     2.480000000
O     7.301000000     2.429000000     0.646000000
H     7.924000000     2.928000000     0.117000000
H     6.933000000     1.786000000     0.040000000
O     0.139000000    -0.634000000     2.956000000
H     0.489000000    -1.257000000     3.592000000
H     0.018000000    -1.149000000     2.158000000
O    -0.778000000    -5.523000000    -1.662000000
H    -1.159000000    -6.165000000    -2.260000000
H    -0.140000000    -5.048000000    -2.195000000
O    -0.661000000     4.907000000    -0.096000000
H    -1.451000000     4.457000000     0.203000000
H    -0.809000000     5.825000000     0.128000000
O     5.476000000    -4.171000000    -1.763000000
H     5.129000000    -5.016000000    -1.478000000
H     5.979000000    -4.372000000    -2.552000000
O    -1.631000000     3.587000000    -3.598000000
H    -2.460000000     3.109000000    -3.584000000
H    -1.743000000     4.279000000    -2.946000000
O     0.822000000    -3.870000000    -3.620000000
H     1.310000000    -3.734000000    -4.432000000
H     0.964000000    -3.068000000    -3.118000000
O    -3.393000000    -5.850000000     0.234000000
H    -2.579000000    -5.853000000    -0.268000000
H    -3.866000000    -5.079000000    -0.078000000
O     6.623000000     1.604000000     4.201000000
H     5.790000000     1.138000000     4.278000000
H     7.083000000     1.157000000     3.491000000
O    -5.611000000    -2.323000000    -3.975000000
H    -6.079000000    -3.012000000    -4.447000000
H    -5.006000000    -1.958000000    -4.622000000
O     4.395000000     0.280000000     4.266000000
H     4.295000000    -0.656000000     4.088000000
H     3.611000000     0.680000000     3.891000000
O    -3.286000000     4.143000000     0.257000000
H    -4.225000000     4.328000000     0.299000000
H    -3.234000000     3.221000000     0.006000000
O     2.701000000    -4.455000000     2.116000000
H     1.782000000    -4.188000000     2.150000000
H     2.910000000    -4.475000000     1.183000000
O     1.798000000     3.557000000    -3.095000000
H     1.295000000     4.312000000    -2.790000000
H     1.200000000     2.816000000    -2.995000000
