161
-3065.39644
C     0.185000000    -0.927000000    -1.116000000
H     0.336000000    -1.285000000    -2.131000000
C     1.163000000    -0.132000000    -0.564000000
H     2.218000000    -0.107000000    -0.823000000
C     0.862000000     0.598000000     0.566000000
C     1.901000000     1.528000000     1.171000000
H     1.982000000     2.419000000     0.545000000
H     1.785000000     1.889000000     2.195000000
H     2.870000000     1.024000000     1.142000000
C    -0.416000000     0.606000000     1.076000000
H    -0.656000000     1.292000000     1.886000000
C    -1.417000000    -0.253000000     0.532000000
H    -2.386000000    -0.287000000     1.023000000
C    -1.067000000    -0.987000000    -0.609000000
C    -2.145000000    -1.673000000    -1.381000000
O    -3.263000000    -1.714000000    -0.984000000
O    -1.950000000    -1.990000000    -2.523000000
O     5.747000000     3.589000000     2.735000000
H     5.830000000     2.641000000     2.629000000
H     6.338000000     3.957000000     2.078000000
O    -4.606000000    -2.682000000    -3.002000000
H    -3.886000000    -2.474000000    -3.597000000
H    -4.272000000    -2.456000000    -2.134000000
O     2.216000000     5.330000000     0.386000000
H     1.326000000     5.048000000     0.173000000
H     2.339000000     5.065000000     1.298000000
O    -2.709000000    -0.203000000    -4.305000000
H    -2.366000000    -0.873000000    -3.714000000
H    -2.439000000    -0.492000000    -5.177000000
O    -2.831000000    -3.444000000     3.182000000
H    -3.489000000    -2.976000000     2.667000000
H    -3.301000000    -4.196000000     3.543000000
O    -5.547000000    -4.918000000    -1.325000000
H    -6.075000000    -4.345000000    -1.881000000
H    -4.642000000    -4.672000000    -1.517000000
O    -0.180000000    -3.383000000    -3.826000000
H    -0.758000000    -3.764000000    -4.487000000
H    -0.734000000    -2.763000000    -3.352000000
O    -1.572000000    -1.583000000    -6.431000000
H    -0.694000000    -1.863000000    -6.692000000
H    -1.868000000    -2.261000000    -5.824000000
O    -1.203000000    -3.908000000     0.592000000
H    -1.378000000    -3.615000000     1.486000000
H    -1.998000000    -4.373000000     0.332000000
O    -7.617000000    -3.256000000     0.265000000
H    -7.942000000    -3.979000000     0.802000000
H    -6.679000000    -3.221000000     0.454000000
O     5.313000000    -0.401000000     0.768000000
H     5.292000000     0.241000000     0.059000000
H     5.011000000    -1.214000000     0.364000000
O     4.688000000     4.686000000    -0.577000000
H     3.864000000     5.172000000    -0.550000000
H     4.453000000     3.801000000    -0.300000000
O     1.506000000     4.238000000     4.558000000
H     2.174000000     4.880000000     4.318000000
H     0.929000000     4.197000000     3.795000000
O    -4.980000000     0.682000000    -1.271000000
H    -5.070000000     0.792000000    -2.217000000
H    -4.627000000    -0.202000000    -1.165000000
O     1.698000000    -3.902000000    -0.322000000
H     1.302000000    -4.518000000     0.295000000
H     1.067000000    -3.186000000    -0.384000000
O    -0.656000000     1.959000000    -3.474000000
H    -1.108000000     1.163000000    -3.755000000
H    -1.039000000     2.163000000    -2.621000000
O    -4.382000000     0.153000000     2.411000000
H    -3.758000000     0.628000000     2.960000000
H    -4.781000000     0.829000000     1.863000000
O     2.120000000    -1.292000000     2.493000000
H     1.488000000    -1.618000000     3.134000000
H     1.588000000    -1.033000000     1.741000000
O    -4.343000000    -5.513000000    -4.361000000
H    -4.888000000    -5.783000000    -3.621000000
H    -4.955000000    -5.107000000    -4.974000000
O     2.030000000     5.715000000    -3.003000000
H     1.476000000     6.485000000    -3.136000000
H     2.381000000     5.822000000    -2.119000000
O    -6.761000000    -1.171000000    -3.839000000
H    -6.322000000    -0.330000000    -3.966000000
H    -6.085000000    -1.741000000    -3.473000000
O    -2.182000000     0.320000000     4.564000000
H    -2.324000000    -0.473000000     5.081000000
H    -1.232000000     0.433000000     4.555000000
O    -0.260000000     4.094000000    -0.328000000
H    -0.725000000     3.289000000    -0.556000000
H    -0.671000000     4.769000000    -0.868000000
O     0.517000000     1.632000000     5.382000000
H     1.398000000     1.275000000     5.271000000
H     0.580000000     2.529000000     5.054000000
O     4.524000000     1.884000000    -1.092000000
H     3.696000000     2.092000000    -1.525000000
H     5.153000000     2.499000000    -1.470000000
O    -4.874000000    -2.227000000     1.105000000
H    -4.455000000    -2.141000000     0.249000000
H    -4.875000000    -1.339000000     1.463000000
O     8.166000000     0.255000000     0.477000000
H     8.081000000     1.024000000    -0.087000000
H     7.265000000     0.021000000     0.699000000
O    -2.853000000    -4.729000000    -2.226000000
H    -3.240000000    -4.795000000    -3.098000000
H    -2.279000000    -3.964000000    -2.276000000
O     2.523000000    -2.635000000    -3.544000000
H     2.946000000    -3.470000000    -3.348000000
H     1.589000000    -2.842000000    -3.581000000
O    -6.100000000    -1.813000000     3.817000000
H    -5.796000000    -1.776000000     2.910000000
H    -5.573000000    -1.157000000     4.273000000
O     3.830000000     5.882000000     3.611000000
H     4.195000000     6.639000000     3.153000000
H     4.386000000     5.150000000     3.345000000
O     0.191000000    -2.282000000     4.513000000
H    -0.401000000    -1.669000000     4.949000000
H    -0.360000000    -3.034000000     4.295000000
O     1.456000000    -0.388000000    -5.570000000
H     1.589000000    -1.125000000    -6.165000000
H     1.661000000    -0.740000000    -4.704000000
O    -0.070000000     4.404000000     2.455000000
H    -0.155000000     4.053000000     1.568000000
H    -0.820000000     4.991000000     2.553000000
O     4.305000000    -2.946000000    -0.057000000
H     3.359000000    -3.087000000    -0.077000000
H     4.658000000    -3.742000000     0.342000000
O    -2.411000000     2.275000000    -1.180000000
H    -2.872000000     1.436000000    -1.194000000
H    -3.106000000     2.931000000    -1.237000000
O    -2.353000000    -4.058000000    -5.375000000
H    -3.099000000    -4.635000000    -5.211000000
H    -2.120000000    -4.222000000    -6.289000000
O    -1.386000000    -6.972000000    -1.991000000
H    -0.560000000    -6.499000000    -2.082000000
H    -2.059000000    -6.293000000    -2.038000000
O     5.668000000     0.675000000     3.290000000
H     6.101000000    -0.014000000     3.794000000
H     5.593000000     0.315000000     2.406000000
O    -5.010000000     0.986000000    -3.816000000
H    -4.855000000     1.908000000    -4.021000000
H    -4.229000000     0.535000000    -4.135000000
O     3.257000000     0.343000000     4.697000000
H     2.675000000    -0.288000000     4.273000000
H     4.050000000     0.335000000     4.161000000
O     1.935000000     3.644000000     7.054000000
H     1.906000000     3.749000000     6.103000000
H     2.534000000     4.329000000     7.352000000
O     5.869000000     2.903000000     5.711000000
H     6.779000000     2.763000000     5.448000000
H     5.363000000     2.752000000     4.913000000
O    -4.969000000     2.284000000     0.910000000
H    -4.696000000     3.195000000     0.804000000
H    -4.834000000     1.892000000     0.048000000
O     6.050000000     1.305000000    -4.348000000
H     5.391000000     1.644000000    -4.953000000
H     5.558000000     0.744000000    -3.748000000
O     4.203000000    -0.515000000    -3.515000000
H     3.385000000    -1.003000000    -3.414000000
H     4.773000000    -0.859000000    -2.827000000
O     3.646000000    -3.098000000     4.569000000
H     3.255000000    -2.752000000     3.767000000
H     2.901000000    -3.273000000     5.143000000
O     2.122000000     2.725000000    -2.643000000
H     1.694000000     3.579000000    -2.695000000
H     1.483000000     2.114000000    -3.011000000
