161
-3063.83276
C    -1.041000000    -0.196000000     1.016000000
H    -1.718000000    -0.309000000     1.859000000
C     0.318000000     0.081000000     1.322000000
H     0.681000000     0.143000000     2.345000000
C     1.166000000     0.325000000     0.241000000
C     2.639000000     0.367000000     0.446000000
H     3.100000000    -0.477000000    -0.072000000
H     3.078000000     1.253000000    -0.016000000
H     2.894000000     0.369000000     1.508000000
C     0.657000000     0.282000000    -1.061000000
H     1.248000000     0.473000000    -1.953000000
C    -0.635000000    -0.008000000    -1.306000000
H    -0.944000000    -0.154000000    -2.338000000
C    -1.539000000    -0.232000000    -0.237000000
C    -2.931000000    -0.554000000    -0.498000000
O    -3.405000000    -0.243000000    -1.578000000
O    -3.572000000    -1.125000000     0.327000000
O     6.072000000     0.180000000     1.235000000
H     5.925000000    -0.499000000     0.577000000
H     5.545000000     0.922000000     0.936000000
O    -5.662000000     0.916000000    -2.437000000
H    -5.403000000     1.692000000    -2.934000000
H    -4.836000000     0.535000000    -2.140000000
O    -3.203000000     2.626000000     3.026000000
H    -2.598000000     2.961000000     2.364000000
H    -3.787000000     2.042000000     2.544000000
O    -8.198000000    -0.435000000    -2.995000000
H    -7.447000000     0.151000000    -2.912000000
H    -8.243000000    -0.887000000    -2.152000000
O    -3.105000000     3.967000000    -4.263000000
H    -2.934000000     3.166000000    -3.769000000
H    -3.283000000     4.628000000    -3.594000000
O    -1.276000000    -1.464000000     4.719000000
H    -2.010000000    -1.620000000     4.125000000
H    -0.538000000    -1.920000000     4.313000000
O    -1.929000000     3.482000000     0.263000000
H    -1.388000000     4.237000000     0.493000000
H    -1.439000000     3.039000000    -0.431000000
O    -7.096000000    -0.199000000     2.862000000
H    -7.649000000    -0.395000000     2.106000000
H    -7.665000000     0.292000000     3.455000000
O    -2.764000000    -0.522000000     6.912000000
H    -3.565000000    -0.268000000     6.454000000
H    -2.061000000    -0.316000000     6.295000000
O     0.728000000     1.861000000     5.810000000
H    -0.111000000     1.706000000     5.375000000
H     0.920000000     1.037000000     6.259000000
O    -0.192000000     4.009000000    -2.550000000
H     0.089000000     4.903000000    -2.749000000
H    -0.020000000     3.520000000    -3.355000000
O    -0.208000000    -4.684000000    -1.451000000
H    -0.922000000    -4.206000000    -1.029000000
H     0.453000000    -4.016000000    -1.633000000
O     1.071000000     2.795000000    -5.325000000
H     0.217000000     2.756000000    -5.757000000
H     1.380000000     1.889000000    -5.324000000
O     2.241000000     6.390000000     0.240000000
H     2.943000000     6.591000000    -0.379000000
H     1.964000000     5.503000000     0.009000000
O     4.978000000    -2.674000000     2.138000000
H     4.467000000    -3.483000000     2.144000000
H     5.795000000    -2.909000000     1.699000000
O     1.270000000    -1.584000000    -4.767000000
H     1.470000000    -2.267000000    -5.406000000
H     1.078000000    -0.809000000    -5.296000000
O     1.200000000     0.374000000    -6.485000000
H     0.658000000     0.542000000    -7.256000000
H     2.019000000     0.026000000    -6.839000000
O    -7.864000000     2.047000000    -0.374000000
H    -7.969000000     1.099000000    -0.287000000
H    -7.010000000     2.155000000    -0.792000000
O     3.675000000    -4.343000000    -0.391000000
H     2.909000000    -3.877000000    -0.727000000
H     4.005000000    -4.836000000    -1.143000000
O     1.766000000    -2.462000000     3.496000000
H     2.381000000    -2.358000000     4.222000000
H     2.302000000    -2.790000000     2.774000000
O     4.557000000     3.927000000     1.634000000
H     4.148000000     4.786000000     1.534000000
H     5.408000000     4.112000000     2.033000000
O     5.635000000    -1.655000000    -0.754000000
H     4.691000000    -1.695000000    -0.604000000
H     5.742000000    -1.882000000    -1.677000000
O    -2.420000000    -3.781000000     0.106000000
H    -2.935000000    -3.008000000     0.333000000
H    -3.050000000    -4.501000000     0.119000000
O    -2.614000000    -0.140000000    -6.374000000
H    -2.219000000    -1.012000000    -6.371000000
H    -3.428000000    -0.248000000    -6.865000000
O    -7.963000000    -0.700000000     0.061000000
H    -7.114000000    -1.105000000     0.238000000
H    -8.602000000    -1.378000000     0.280000000
O     3.700000000    -0.230000000    -3.246000000
H     2.991000000    -0.494000000    -3.832000000
H     4.381000000    -0.890000000    -3.383000000
O    -4.907000000     0.842000000     1.651000000
H    -4.371000000     0.131000000     1.299000000
H    -5.588000000     0.400000000     2.158000000
O    -4.843000000     2.979000000    -0.016000000
H    -4.002000000     3.154000000     0.406000000
H    -5.065000000     2.087000000     0.253000000
O     4.298000000    -0.892000000     4.300000000
H     4.483000000    -1.348000000     3.479000000
H     3.793000000    -0.122000000     4.038000000
O    -7.715000000    -3.500000000    -1.477000000
H    -7.320000000    -2.788000000    -0.973000000
H    -7.884000000    -4.185000000    -0.831000000
O    -4.183000000    -2.769000000    -2.573000000
H    -4.889000000    -3.019000000    -1.978000000
H    -3.775000000    -2.011000000    -2.156000000
O     6.080000000     2.284000000     3.835000000
H     5.193000000     1.943000000     3.719000000
H     6.635000000     1.504000000     3.863000000
O    -3.647000000    -3.799000000    -5.247000000
H    -3.066000000    -4.362000000    -4.735000000
H    -4.109000000    -3.274000000    -4.594000000
O    -5.800000000    -0.119000000    -5.513000000
H    -6.049000000     0.801000000    -5.417000000
H    -5.454000000    -0.364000000    -4.655000000
O    -4.762000000    -4.169000000     2.034000000
H    -4.438000000    -5.039000000     1.799000000
H    -5.528000000    -4.339000000     2.582000000
O     1.843000000    -2.647000000    -2.003000000
H     1.786000000    -1.772000000    -1.618000000
H     1.741000000    -2.502000000    -2.943000000
O    -1.458000000     2.431000000    -6.233000000
H    -1.976000000     3.031000000    -5.698000000
H    -1.828000000     1.567000000    -6.051000000
O     3.353000000     1.680000000     4.041000000
H     2.547000000     1.824000000     4.537000000
H     3.444000000     2.464000000     3.499000000
O    -5.956000000    -2.288000000     0.463000000
H    -5.717000000    -3.131000000     0.849000000
H    -5.143000000    -1.783000000     0.470000000
O     3.915000000     2.489000000    -2.664000000
H     3.642000000     1.612000000    -2.937000000
H     4.354000000     2.352000000    -1.824000000
O     1.067000000     3.154000000     1.680000000
H     1.359000000     2.269000000     1.899000000
H     1.513000000     3.356000000     0.857000000
O    -1.991000000     1.705000000     5.441000000
H    -2.024000000     2.345000000     6.152000000
H    -2.285000000     2.190000000     4.670000000
O    -2.450000000     1.174000000    -3.682000000
H    -2.633000000     0.531000000    -4.367000000
H    -2.817000000     0.788000000    -2.886000000
O     5.288000000     2.272000000    -0.289000000
H     4.847000000     2.628000000     0.482000000
H     6.088000000     2.792000000    -0.368000000
O     5.621000000    -2.034000000    -3.516000000
H     5.513000000    -2.979000000    -3.628000000
H     5.836000000    -1.712000000    -4.391000000
O     2.013000000     3.782000000    -0.922000000
H     2.774000000     3.393000000    -1.353000000
H     1.265000000     3.481000000    -1.439000000
O    -3.319000000    -2.003000000     3.019000000
H    -3.796000000    -2.805000000     2.808000000
H    -3.352000000    -1.485000000     2.215000000
O    -0.483000000    -5.313000000     2.847000000
H    -1.003000000    -5.867000000     2.265000000
H    -0.772000000    -4.422000000     2.651000000
