161
-3025.30318
C     0.013000000     0.725000000    -1.319000000
H     0.175000000     1.201000000    -2.283000000
C     0.758000000     1.055000000    -0.181000000
H     1.465000000     1.880000000    -0.169000000
C     0.642000000     0.331000000     1.012000000
C     1.558000000     0.680000000     2.166000000
H     1.443000000     1.715000000     2.496000000
H     1.252000000     0.104000000     3.042000000
H     2.599000000     0.496000000     1.894000000
C    -0.160000000    -0.783000000     1.006000000
H    -0.267000000    -1.331000000     1.938000000
C    -0.913000000    -1.184000000    -0.106000000
H    -1.566000000    -2.051000000    -0.055000000
C    -0.877000000    -0.400000000    -1.228000000
C    -1.732000000    -0.766000000    -2.436000000
O    -2.670000000    -1.541000000    -2.321000000
O    -1.727000000    -0.127000000    -3.449000000
O    -0.891000000    -3.695000000     5.301000000
H    -0.161000000    -3.171000000     4.973000000
H    -1.204000000    -4.176000000     4.535000000
O     1.976000000    -4.972000000     1.830000000
H     2.369000000    -5.340000000     2.621000000
H     1.914000000    -5.713000000     1.227000000
O    -5.428000000    -4.203000000    -1.810000000
H    -5.005000000    -3.430000000    -1.436000000
H    -5.136000000    -4.218000000    -2.722000000
O     2.127000000    -1.965000000    -1.447000000
H     2.782000000    -1.736000000    -0.789000000
H     1.350000000    -1.466000000    -1.197000000
O     1.345000000     5.230000000     5.596000000
H     1.634000000     5.231000000     6.509000000
H     1.868000000     5.913000000     5.178000000
O    -2.906000000    -4.361000000     1.243000000
H    -2.021000000    -4.213000000     0.911000000
H    -3.437000000    -3.687000000     0.818000000
O     4.531000000     2.183000000     2.111000000
H     4.375000000     1.589000000     1.378000000
H     5.279000000     1.804000000     2.572000000
O    -2.797000000     4.496000000    -5.113000000
H    -2.387000000     3.693000000    -4.792000000
H    -2.845000000     4.379000000    -6.061000000
O     0.218000000    -1.988000000    -5.805000000
H    -0.654000000    -1.600000000    -5.873000000
H     0.166000000    -2.788000000    -6.329000000
O    -1.309000000     2.466000000    -4.156000000
H    -1.633000000     1.605000000    -3.893000000
H    -0.624000000     2.278000000    -4.797000000
O     8.115000000     0.731000000     1.022000000
H     7.245000000     1.121000000     1.105000000
H     8.164000000     0.446000000     0.110000000
O    -0.939000000    -4.456000000    -2.247000000
H    -1.148000000    -3.580000000    -2.572000000
H    -0.828000000    -4.342000000    -1.304000000
O     0.247000000     1.070000000     6.320000000
H     0.674000000     0.952000000     7.169000000
H    -0.228000000     1.897000000     6.403000000
O    -6.360000000     0.242000000    -5.011000000
H    -6.307000000     0.974000000    -5.626000000
H    -6.580000000    -0.514000000    -5.556000000
O    -5.022000000    -1.433000000    -7.689000000
H    -4.633000000    -1.641000000    -8.538000000
H    -4.287000000    -1.132000000    -7.155000000
O     6.455000000     2.287000000    -0.612000000
H     5.697000000     1.755000000    -0.369000000
H     6.164000000     2.781000000    -1.379000000
O    -0.341000000     4.404000000     3.463000000
H    -1.062000000     4.059000000     3.988000000
H     0.308000000     4.690000000     4.106000000
O    -4.281000000    -2.380000000    -0.310000000
H    -3.692000000    -2.023000000    -0.976000000
H    -4.745000000    -1.616000000     0.033000000
O     2.821000000     1.718000000    -4.547000000
H     1.892000000     1.915000000    -4.670000000
H     2.829000000     0.947000000    -3.980000000
O     5.212000000    -1.925000000     3.716000000
H     6.108000000    -2.236000000     3.848000000
H     5.303000000    -0.983000000     3.575000000
O     1.146000000    -1.631000000     5.504000000
H     1.954000000    -1.564000000     6.014000000
H     0.600000000    -0.914000000     5.827000000
O     2.968000000     4.505000000     2.460000000
H     3.650000000     3.865000000     2.260000000
H     2.274000000     4.322000000     1.827000000
O     2.772000000     2.270000000     4.854000000
H     1.876000000     2.429000000     5.150000000
H     2.789000000     2.599000000     3.956000000
O     3.800000000    -2.481000000     1.049000000
H     3.216000000    -3.213000000     1.250000000
H     4.249000000    -2.300000000     1.874000000
O    -2.831000000    -0.800000000    -5.790000000
H    -2.979000000     0.023000000    -6.255000000
H    -2.466000000    -0.535000000    -4.945000000
O     5.974000000     3.815000000     5.135000000
H     6.243000000     4.707000000     4.918000000
H     5.473000000     3.524000000     4.373000000
O    -2.415000000    -6.846000000    -2.557000000
H    -3.240000000    -6.656000000    -2.111000000
H    -2.021000000    -5.986000000    -2.708000000
O    -2.298000000    -5.339000000     3.668000000
H    -2.741000000    -4.931000000     2.924000000
H    -2.028000000    -6.199000000     3.343000000
O     2.393000000    -1.367000000    -4.124000000
H     2.027000000    -1.795000000    -3.350000000
H     1.736000000    -1.503000000    -4.807000000
O    -0.907000000     4.279000000    -2.108000000
H    -1.268000000     3.913000000    -2.916000000
H    -1.310000000     3.763000000    -1.410000000
O    -0.295000000    -4.509000000     0.266000000
H     0.405000000    -4.171000000     0.824000000
H    -0.148000000    -5.455000000     0.243000000
O     6.633000000     0.696000000     3.551000000
H     6.964000000     0.744000000     4.448000000
H     7.393000000     0.439000000     3.029000000
O    -5.298000000    -5.339000000    -4.531000000
H    -5.735000000    -4.963000000    -5.295000000
H    -4.466000000    -4.868000000    -4.475000000
O    -4.728000000     0.482000000    -2.672000000
H    -3.981000000    -0.114000000    -2.618000000
H    -5.085000000     0.341000000    -3.549000000
O    -1.561000000     0.472000000    -7.935000000
H    -1.069000000     0.794000000    -8.690000000
H    -1.945000000    -0.353000000    -8.233000000
O     5.196000000     0.096000000     0.439000000
H     5.907000000    -0.030000000    -0.189000000
H     4.570000000    -0.598000000     0.233000000
O    -2.413000000     1.768000000     0.667000000
H    -2.101000000     0.873000000     0.534000000
H    -1.627000000     2.309000000     0.594000000
O    -2.978000000     0.503000000     5.908000000
H    -2.941000000     0.761000000     4.986000000
H    -2.429000000     1.144000000     6.358000000
O    -3.127000000     1.435000000     3.345000000
H    -4.058000000     1.507000000     3.133000000
H    -2.678000000     1.796000000     2.581000000
O    -4.750000000     2.149000000    -0.620000000
H    -4.615000000     1.563000000    -1.365000000
H    -3.944000000     2.077000000    -0.109000000
O    -3.239000000    -3.270000000    -4.281000000
H    -3.122000000    -2.743000000    -3.491000000
H    -3.362000000    -2.629000000    -4.981000000
O     1.924000000    -0.646000000    -7.690000000
H     2.054000000    -1.480000000    -8.142000000
H     1.438000000    -0.877000000    -6.898000000
O    -5.926000000    -5.158000000     1.116000000
H    -5.945000000    -5.011000000     2.062000000
H    -5.102000000    -4.763000000     0.830000000
O     3.353000000    -3.483000000     4.463000000
H     4.121000000    -2.984000000     4.185000000
H     2.768000000    -2.828000000     4.844000000
O     4.383000000     2.358000000     6.908000000
H     5.153000000     2.811000000     6.565000000
H     3.761000000     2.359000000     6.180000000
O     0.312000000     1.666000000    -6.451000000
H     1.060000000     1.405000000    -6.989000000
H    -0.437000000     1.224000000    -6.852000000
O     1.455000000     5.641000000    -1.501000000
H     0.646000000     5.242000000    -1.821000000
H     1.613000000     5.218000000    -0.658000000
O     0.564000000     4.712000000     0.930000000
H     0.282000000     5.624000000     0.862000000
H     0.185000000     4.405000000     1.754000000
