161
-3033.81608
C    -0.863000000     0.673000000    -0.928000000
H    -1.382000000     1.359000000    -1.593000000
C    -0.226000000     1.317000000     0.098000000
H    -0.207000000     2.403000000     0.053000000
C     0.384000000     0.491000000     1.081000000
C     1.268000000     1.163000000     2.162000000
H     0.624000000     1.355000000     3.022000000
H     1.998000000     0.436000000     2.526000000
H     1.604000000     2.151000000     1.840000000
C     0.463000000    -0.876000000     0.895000000
H     1.001000000    -1.552000000     1.553000000
C    -0.182000000    -1.513000000    -0.237000000
H    -0.077000000    -2.568000000    -0.476000000
C    -0.746000000    -0.681000000    -1.212000000
C    -1.191000000    -1.265000000    -2.537000000
O    -0.753000000    -2.353000000    -2.938000000
O    -1.714000000    -0.538000000    -3.308000000
O     4.044000000    -3.742000000     2.979000000
H     4.302000000    -4.660000000     2.897000000
H     4.061000000    -3.407000000     2.082000000
O     2.868000000    -2.697000000     5.191000000
H     3.297000000    -2.937000000     4.369000000
H     2.540000000    -3.525000000     5.541000000
O     4.690000000     0.637000000     1.243000000
H     5.541000000     0.216000000     1.125000000
H     4.113000000     0.188000000     0.625000000
O    -2.311000000    -4.344000000    -1.578000000
H    -1.546000000    -3.798000000    -1.762000000
H    -2.649000000    -4.009000000    -0.747000000
O     3.830000000    -4.529000000     0.313000000
H     3.155000000    -5.148000000     0.591000000
H     3.453000000    -4.091000000    -0.451000000
O    -1.206000000     6.843000000    -1.118000000
H    -0.720000000     6.057000000    -0.869000000
H    -1.875000000     6.936000000    -0.440000000
O    -3.531000000    -0.029000000     4.598000000
H    -3.849000000     0.615000000     5.230000000
H    -4.265000000    -0.632000000     4.481000000
O     2.662000000     4.777000000     5.977000000
H     3.548000000     4.733000000     6.336000000
H     2.404000000     3.862000000     5.866000000
O    -1.842000000    -6.294000000     0.262000000
H    -2.062000000    -5.635000000    -0.398000000
H    -2.034000000    -7.130000000    -0.162000000
O     4.157000000     3.147000000     0.848000000
H     4.162000000     2.199000000     0.983000000
H     5.080000000     3.380000000     0.746000000
O     0.168000000     0.885000000    -4.563000000
H     1.028000000     0.483000000    -4.441000000
H    -0.416000000     0.377000000    -4.000000000
O    -1.257000000    -3.413000000    -5.465000000
H    -1.041000000    -2.851000000    -4.721000000
H    -2.127000000    -3.123000000    -5.739000000
O     2.893000000     2.062000000     6.885000000
H     3.675000000     1.722000000     6.450000000
H     2.192000000     1.469000000     6.615000000
O    -3.439000000     1.524000000    -3.888000000
H    -3.062000000     2.118000000    -4.537000000
H    -2.709000000     0.964000000    -3.623000000
O    -5.787000000     1.748000000    -5.389000000
H    -5.078000000     1.669000000    -4.750000000
H    -6.264000000     2.533000000    -5.121000000
O     2.309000000     4.424000000    -0.512000000
H     2.826000000     3.889000000     0.091000000
H     1.555000000     4.708000000     0.005000000
O    -3.011000000    -2.910000000     0.741000000
H    -2.707000000    -2.059000000     1.057000000
H    -3.907000000    -2.981000000     1.068000000
O    -0.504000000     4.400000000     3.705000000
H     0.060000000     4.743000000     4.398000000
H    -1.251000000     4.022000000     4.169000000
O     5.035000000     2.114000000     4.024000000
H     5.332000000     1.751000000     3.189000000
H     4.380000000     1.489000000     4.337000000
O     3.794000000     6.947000000     0.151000000
H     3.183000000     6.211000000     0.166000000
H     3.306000000     7.672000000     0.541000000
O    -4.482000000    -0.535000000    -8.117000000
H    -5.325000000    -0.089000000    -8.030000000
H    -4.156000000    -0.610000000    -7.221000000
O     3.825000000     4.749000000     3.192000000
H     4.388000000     4.159000000     3.693000000
H     3.683000000     4.295000000     2.361000000
O     3.501000000    -0.492000000    -0.738000000
H     3.614000000    -1.324000000    -1.198000000
H     2.564000000    -0.306000000    -0.805000000
O    -2.460000000     3.158000000    -6.030000000
H    -2.400000000     2.752000000    -6.895000000
H    -1.730000000     3.776000000    -6.004000000
O     3.896000000    -0.227000000     5.466000000
H     3.215000000    -0.899000000     5.432000000
H     4.717000000    -0.714000000     5.392000000
O     2.055000000    -1.317000000    -5.365000000
H     2.936000000    -1.423000000    -5.724000000
H     1.886000000    -2.134000000    -4.897000000
O    -0.651000000     2.675000000     6.628000000
H    -0.240000000     1.817000000     6.523000000
H    -1.459000000     2.617000000     6.117000000
O     4.780000000     3.435000000    -2.239000000
H     3.915000000     3.368000000    -1.833000000
H     5.363000000     2.970000000    -1.638000000
O     1.119000000     3.369000000    -4.726000000
H     0.604000000     2.622000000    -4.422000000
H     0.544000000     3.821000000    -5.344000000
O     1.648000000    -6.906000000     0.188000000
H     1.141000000    -7.652000000    -0.133000000
H     0.994000000    -6.314000000     0.559000000
O     3.236000000    -3.186000000    -2.091000000
H     2.555000000    -3.100000000    -2.759000000
H     3.991000000    -3.539000000    -2.562000000
O    -4.169000000     5.728000000     1.969000000
H    -3.326000000     5.338000000     1.736000000
H    -4.606000000     5.873000000     1.130000000
O    -4.175000000    -2.552000000    -3.133000000
H    -3.561000000    -3.158000000    -2.720000000
H    -3.619000000    -1.901000000    -3.561000000
O    -2.475000000    -0.715000000     2.218000000
H    -2.888000000    -0.506000000     3.056000000
H    -1.620000000    -0.285000000     2.259000000
O     0.255000000     0.294000000    -7.125000000
H     0.650000000    -0.441000000    -6.657000000
H    -0.165000000     0.816000000    -6.442000000
O     0.096000000    -2.082000000     5.124000000
H    -0.230000000    -2.851000000     4.656000000
H     1.047000000    -2.131000000     5.032000000
O    -1.807000000    -4.153000000     3.620000000
H    -2.087000000    -3.775000000     2.786000000
H    -2.580000000    -4.616000000     3.944000000
O     1.095000000    -4.440000000    -6.710000000
H     0.197000000    -4.270000000    -6.427000000
H     1.626000000    -4.289000000    -5.928000000
O     0.083000000     4.724000000     1.044000000
H    -0.652000000     4.211000000     0.710000000
H     0.007000000     4.660000000     1.996000000
O    -6.422000000    -0.604000000    -1.573000000
H    -6.859000000    -0.111000000    -2.267000000
H    -5.786000000    -1.153000000    -2.034000000
O     1.243000000    -3.805000000    -3.889000000
H     1.139000000    -4.720000000    -3.628000000
H     0.455000000    -3.371000000    -3.562000000
O    -2.527000000     3.546000000     4.985000000
H    -2.931000000     4.066000000     5.680000000
H    -3.096000000     2.782000000     4.896000000
O    -2.453000000     3.827000000     0.373000000
H    -2.946000000     3.977000000    -0.434000000
H    -3.012000000     3.247000000     0.891000000
O    -3.815000000     3.521000000    -2.019000000
H    -3.465000000     2.773000000    -2.501000000
H    -4.635000000     3.202000000    -1.642000000
O     0.711000000     0.095000000     6.763000000
H     0.376000000    -0.589000000     6.183000000
H     1.075000000    -0.381000000     7.509000000
O    -2.661000000    -0.780000000    -6.078000000
H    -2.610000000    -0.726000000    -5.124000000
H    -1.752000000    -0.708000000    -6.371000000
O    -2.726000000    -5.547000000    -3.896000000
H    -2.519000000    -5.121000000    -3.064000000
H    -2.216000000    -5.064000000    -4.546000000
O     1.054000000    -6.462000000    -3.218000000
H     0.923000000    -7.390000000    -3.413000000
H     1.888000000    -6.432000000    -2.749000000
