161
-3019.41210
C    -1.134000000    -0.231000000     0.940000000
H    -1.896000000    -0.446000000     1.684000000
C     0.216000000    -0.410000000     1.262000000
H     0.497000000    -0.710000000     2.268000000
C     1.161000000    -0.178000000     0.290000000
C     2.637000000    -0.563000000     0.556000000
H     2.916000000    -1.323000000    -0.176000000
H     3.247000000     0.284000000     0.234000000
H     2.719000000    -0.906000000     1.589000000
C     0.787000000     0.261000000    -0.960000000
H     1.543000000     0.366000000    -1.734000000
C    -0.562000000     0.595000000    -1.263000000
H    -0.784000000     0.948000000    -2.267000000
C    -1.519000000     0.320000000    -0.326000000
C    -2.905000000     0.663000000    -0.610000000
O    -3.208000000     0.816000000    -1.796000000
O    -3.723000000     0.520000000     0.315000000
O     6.030000000     1.124000000     0.088000000
H     5.925000000     0.385000000    -0.511000000
H     5.223000000     1.629000000    -0.010000000
O    -5.547000000     1.793000000    -2.038000000
H    -5.580000000     2.503000000    -1.397000000
H    -4.656000000     1.451000000    -1.972000000
O    -3.873000000     4.071000000     3.105000000
H    -2.941000000     3.858000000     3.052000000
H    -4.311000000     3.221000000     3.153000000
O    -8.024000000     1.566000000    -2.553000000
H    -7.070000000     1.557000000    -2.477000000
H    -8.332000000     1.125000000    -1.761000000
O     5.358000000    -4.876000000     0.084000000
H     5.836000000    -4.052000000    -0.013000000
H     4.460000000    -4.662000000    -0.168000000
O    -3.948000000     5.051000000    -3.822000000
H    -3.752000000     4.115000000    -3.789000000
H    -4.617000000     5.180000000    -3.150000000
O    -2.800000000    -0.876000000     5.147000000
H    -3.347000000    -0.545000000     4.435000000
H    -2.793000000    -1.825000000     5.023000000
O    -2.560000000     3.916000000    -1.110000000
H    -2.142000000     4.776000000    -1.068000000
H    -2.151000000     3.488000000    -1.862000000
O     5.938000000    -1.588000000     2.522000000
H     6.725000000    -1.407000000     3.037000000
H     6.051000000    -1.073000000     1.723000000
O     0.188000000     1.407000000     4.358000000
H    -0.540000000     1.406000000     4.980000000
H     0.618000000     0.562000000     4.492000000
O     1.617000000     3.325000000    -1.745000000
H     1.937000000     4.169000000    -2.062000000
H     1.276000000     2.889000000    -2.526000000
O    -0.745000000    -3.166000000    -0.804000000
H    -1.218000000    -2.848000000    -0.035000000
H    -0.361000000    -2.380000000    -1.191000000
O     1.253000000     3.584000000    -5.126000000
H     0.525000000     4.200000000    -5.210000000
H     2.022000000     4.082000000    -5.404000000
O     7.193000000    -2.776000000    -0.860000000
H     7.354000000    -2.337000000    -0.025000000
H     6.576000000    -2.204000000    -1.317000000
O     6.000000000    -4.824000000     2.937000000
H     5.483000000    -5.084000000     2.174000000
H     5.676000000    -3.952000000     3.160000000
O    -3.262000000     1.282000000    -6.363000000
H    -2.534000000     0.829000000    -5.938000000
H    -3.409000000     0.793000000    -7.173000000
O     1.221000000    -2.964000000    -3.388000000
H     1.762000000    -2.767000000    -4.153000000
H     0.641000000    -3.667000000    -3.679000000
O    -7.783000000     1.296000000     0.665000000
H    -7.763000000     0.931000000    -0.220000000
H    -8.343000000     0.697000000     1.158000000
O     4.506000000    -3.992000000    -3.258000000
H     3.857000000    -3.995000000    -2.554000000
H     4.372000000    -3.156000000    -3.704000000
O     6.366000000     1.078000000     3.269000000
H     5.792000000     1.070000000     4.035000000
H     5.788000000     1.306000000     2.540000000
O     1.555000000    -0.779000000     4.508000000
H     1.239000000    -1.454000000     3.907000000
H     2.049000000    -1.262000000     5.171000000
O     3.104000000     4.177000000     2.095000000
H     2.259000000     3.803000000     1.844000000
H     3.414000000     4.620000000     1.305000000
O     5.694000000    -0.975000000    -2.618000000
H     4.960000000    -1.271000000    -3.156000000
H     6.473000000    -1.215000000    -3.120000000
O    -2.577000000    -4.383000000     1.382000000
H    -1.764000000    -4.883000000     1.451000000
H    -3.249000000    -5.042000000     1.207000000
O    -1.023000000     0.338000000    -5.008000000
H    -0.342000000     0.245000000    -5.675000000
H    -0.948000000    -0.454000000    -4.476000000
O     2.651000000     1.276000000    -4.513000000
H     2.048000000     1.994000000    -4.707000000
H     2.266000000     0.515000000    -4.948000000
O    -5.158000000     1.421000000     2.145000000
H    -4.501000000     1.156000000     1.501000000
H    -5.965000000     1.515000000     1.639000000
O    -4.980000000     3.894000000     0.380000000
H    -4.210000000     3.856000000    -0.188000000
H    -4.698000000     3.473000000     1.193000000
O     4.250000000    -1.412000000     4.522000000
H     4.830000000    -1.448000000     3.762000000
H     3.834000000    -2.274000000     4.547000000
O    -3.977000000    -1.051000000    -3.438000000
H    -4.253000000    -1.674000000    -2.766000000
H    -3.564000000    -0.339000000    -2.950000000
O     4.644000000     1.047000000     5.471000000
H     4.434000000     0.118000000     5.371000000
H     3.879000000     1.505000000     5.122000000
O    -3.064000000    -3.373000000     4.169000000
H    -3.939000000    -3.730000000     4.322000000
H    -2.989000000    -3.326000000     3.216000000
O    -6.477000000    -0.679000000    -4.257000000
H    -6.822000000    -0.007000000    -3.669000000
H    -5.543000000    -0.719000000    -4.052000000
O    -5.522000000    -3.394000000     1.318000000
H    -5.424000000    -4.333000000     1.160000000
H    -6.272000000    -3.327000000     1.908000000
O     2.891000000    -3.895000000    -1.105000000
H     2.266000000    -4.616000000    -1.182000000
H     2.425000000    -3.136000000    -1.457000000
O    -1.472000000     4.796000000    -5.255000000
H    -2.099000000     5.518000000    -5.218000000
H    -1.594000000     4.331000000    -4.427000000
O     2.596000000     2.555000000     4.511000000
H     1.774000000     2.066000000     4.474000000
H     2.587000000     3.098000000     3.723000000
O    -4.813000000    -1.856000000    -1.101000000
H    -4.622000000    -2.601000000    -0.532000000
H    -4.417000000    -1.107000000    -0.656000000
O     4.896000000     1.993000000    -3.451000000
H     4.082000000     1.602000000    -3.770000000
H     5.024000000     1.606000000    -2.585000000
O    -0.017000000    -3.142000000     3.868000000
H    -0.967000000    -3.025000000     3.863000000
H     0.108000000    -4.091000000     3.872000000
O    -1.209000000     3.654000000     2.785000000
H    -1.160000000     2.725000000     3.008000000
H    -0.594000000     3.760000000     2.060000000
O    -2.081000000     2.601000000    -3.696000000
H    -1.498000000     2.017000000    -4.181000000
H    -2.621000000     2.015000000    -3.166000000
O     3.971000000     2.557000000    -0.708000000
H     4.121000000     3.270000000    -0.086000000
H     3.035000000     2.603000000    -0.902000000
O     3.905000000    -1.844000000    -4.882000000
H     3.857000000    -2.433000000    -5.635000000
H     4.144000000    -0.996000000    -5.256000000
O    -2.244000000    -2.147000000    -5.500000000
H    -2.848000000    -1.803000000    -4.841000000
H    -2.117000000    -3.063000000    -5.253000000
O     0.622000000     4.069000000     0.742000000
H     0.467000000     4.935000000     0.367000000
H     0.907000000     3.534000000     0.001000000
O    -4.772000000    -0.826000000     3.186000000
H    -4.904000000    -1.545000000     2.568000000
H    -5.020000000    -0.041000000     2.697000000
O     2.431000000    -4.780000000     2.502000000
H     1.946000000    -5.447000000     2.016000000
H     2.408000000    -4.008000000     1.937000000
