161
-3040.70105
C     0.178000000    -0.999000000    -1.118000000
H     0.397000000    -1.492000000    -2.062000000
C    -0.335000000     0.283000000    -1.244000000
H    -0.671000000     0.596000000    -2.230000000
C    -0.504000000     1.101000000    -0.085000000
C    -1.032000000     2.556000000    -0.245000000
H    -0.447000000     3.284000000     0.320000000
H    -1.136000000     2.843000000    -1.294000000
H    -2.044000000     2.634000000     0.157000000
C    -0.159000000     0.650000000     1.182000000
H    -0.267000000     1.353000000     2.003000000
C     0.402000000    -0.624000000     1.249000000
H     0.927000000    -0.996000000     2.125000000
C     0.574000000    -1.499000000     0.093000000
C     1.202000000    -2.870000000     0.359000000
O     1.902000000    -3.171000000     1.333000000
O     1.011000000    -3.645000000    -0.547000000
O     0.635000000    -3.047000000     5.605000000
H     0.296000000    -2.468000000     4.923000000
H     1.519000000    -2.723000000     5.776000000
O    -5.297000000     5.708000000     0.366000000
H    -5.053000000     4.819000000     0.625000000
H    -5.719000000     5.602000000    -0.486000000
O     0.527000000    -5.238000000     2.596000000
H     0.346000000    -5.513000000     1.697000000
H     1.011000000    -4.417000000     2.502000000
O     4.596000000    -2.292000000    -2.602000000
H     5.411000000    -2.236000000    -2.103000000
H     4.253000000    -3.163000000    -2.402000000
O    -3.116000000     0.910000000    -4.628000000
H    -3.157000000     1.680000000    -5.195000000
H    -2.322000000     0.452000000    -4.904000000
O    -1.380000000     4.028000000    -4.102000000
H    -2.248000000     4.140000000    -4.489000000
H    -1.417000000     4.523000000    -3.284000000
O    -2.233000000     6.437000000     1.199000000
H    -1.331000000     6.491000000     1.516000000
H    -2.531000000     7.346000000     1.169000000
O    -1.712000000    -1.892000000     4.210000000
H    -1.786000000    -2.159000000     3.293000000
H    -2.410000000    -2.372000000     4.655000000
O    -2.410000000     5.639000000    -1.476000000
H    -3.229000000     5.929000000    -1.878000000
H    -2.459000000     5.958000000    -0.575000000
O    -3.734000000     0.666000000    -1.668000000
H    -3.187000000    -0.096000000    -1.477000000
H    -3.594000000     0.834000000    -2.600000000
O     3.737000000     0.662000000     1.086000000
H     3.565000000     1.603000000     1.132000000
H     3.853000000     0.486000000     0.152000000
O     0.481000000     6.857000000     1.901000000
H     1.015000000     7.327000000     2.541000000
H     0.662000000     7.295000000     1.069000000
O    -1.227000000     0.564000000     5.262000000
H    -1.475000000    -0.278000000     4.880000000
H    -1.629000000     1.215000000     4.687000000
O    -5.975000000     2.982000000     0.703000000
H    -6.537000000     3.081000000     1.472000000
H    -5.384000000     2.264000000     0.930000000
O    -2.154000000    -4.231000000    -5.734000000
H    -3.057000000    -4.263000000    -6.053000000
H    -2.156000000    -3.533000000    -5.079000000
O     0.638000000    -6.379000000    -0.125000000
H     0.836000000    -5.453000000    -0.266000000
H     0.786000000    -6.787000000    -0.978000000
O    -3.499000000    -5.478000000    -2.192000000
H    -2.627000000    -5.206000000    -2.478000000
H    -3.837000000    -4.727000000    -1.705000000
O    -2.539000000    -1.408000000    -0.240000000
H    -2.460000000    -1.853000000     0.604000000
H    -1.637000000    -1.311000000    -0.545000000
O     3.344000000    -4.568000000    -1.895000000
H     2.726000000    -4.121000000    -1.317000000
H     2.863000000    -5.330000000    -2.217000000
O     0.685000000    -8.304000000     2.091000000
H    -0.238000000    -8.432000000     1.871000000
H     0.917000000    -7.473000000     1.677000000
O     3.685000000     3.930000000     1.547000000
H     4.073000000     3.818000000     2.415000000
H     4.331000000     4.442000000     1.060000000
O     4.132000000     0.114000000    -1.405000000
H     4.064000000    -0.792000000    -1.706000000
H     3.942000000     0.639000000    -2.183000000
O     2.919000000    -1.958000000     4.662000000
H     3.186000000    -1.647000000     3.797000000
H     3.711000000    -1.892000000     5.196000000
O     0.938000000     1.464000000    -5.147000000
H     1.455000000     1.162000000    -4.401000000
H     0.332000000     2.105000000    -4.775000000
O    -3.502000000     4.573000000     3.192000000
H    -3.028000000     5.164000000     2.608000000
H    -4.334000000     5.015000000     3.358000000
O     0.146000000     6.423000000    -2.207000000
H    -0.771000000     6.429000000    -1.930000000
H     0.540000000     5.705000000    -1.713000000
O     5.508000000    -5.469000000    -0.542000000
H     5.810000000    -6.357000000    -0.732000000
H     4.751000000    -5.347000000    -1.115000000
O     1.513000000    -4.613000000    -5.751000000
H     1.845000000    -3.725000000    -5.882000000
H     0.902000000    -4.749000000    -6.475000000
O     2.134000000     3.763000000     4.455000000
H     2.352000000     2.971000000     3.964000000
H     1.178000000     3.798000000     4.442000000
O     3.838000000    -5.186000000     1.690000000
H     4.237000000    -5.353000000     0.836000000
H     3.225000000    -4.468000000     1.531000000
O    -0.617000000     4.274000000     4.168000000
H    -1.461000000     3.910000000     3.902000000
H    -0.789000000     5.207000000     4.294000000
O     2.555000000    -2.032000000    -5.707000000
H     3.097000000    -2.158000000    -6.486000000
H     2.741000000    -1.136000000    -5.427000000
O     6.654000000    -3.032000000     1.342000000
H     6.478000000    -3.971000000     1.396000000
H     5.800000000    -2.619000000     1.467000000
O     3.965000000    -1.742000000     2.335000000
H     3.236000000    -2.302000000     2.071000000
H     3.733000000    -0.875000000     2.003000000
O    -4.230000000    -1.360000000     2.678000000
H    -3.596000000    -1.817000000     3.232000000
H    -4.886000000    -2.024000000     2.468000000
O    -0.822000000    -4.053000000    -2.666000000
H    -0.293000000    -4.374000000    -3.396000000
H    -0.183000000    -3.761000000    -2.017000000
O     3.346000000     1.127000000     4.209000000
H     4.189000000     1.360000000     4.598000000
H     3.518000000     1.094000000     3.268000000
O    -3.903000000     0.994000000     0.974000000
H    -3.671000000     0.084000000     1.160000000
H    -3.878000000     1.058000000     0.019000000
O    -4.492000000    -3.319000000    -0.679000000
H    -4.899000000    -3.425000000     0.181000000
H    -3.780000000    -2.697000000    -0.532000000
O    -1.676000000    -3.652000000     1.465000000
H    -0.801000000    -4.007000000     1.623000000
H    -2.236000000    -4.424000000     1.381000000
O     1.250000000    -6.881000000    -2.742000000
H     1.803000000    -6.803000000    -3.519000000
H     0.356000000    -6.875000000    -3.083000000
O    -1.374000000    -1.532000000    -4.407000000
H    -0.830000000    -1.652000000    -5.185000000
H    -0.931000000    -2.036000000    -3.725000000
O     1.651000000    -6.826000000     4.534000000
H     2.461000000    -7.137000000     4.131000000
H     1.293000000    -6.202000000     3.903000000
O     2.273000000     4.040000000    -1.011000000
H     3.002000000     4.549000000    -1.365000000
H     2.530000000     3.849000000    -0.109000000
O     1.817000000     1.751000000    -2.479000000
H     2.049000000     2.598000000    -2.098000000
H     1.339000000     1.299000000    -1.784000000
O     1.404000000     0.312000000     6.238000000
H     0.498000000     0.439000000     5.958000000
H     1.922000000     0.459000000     5.446000000
O    -5.984000000     2.292000000    -1.924000000
H    -5.181000000     1.815000000    -1.715000000
H    -6.101000000     2.897000000    -1.192000000
O    -2.832000000     2.023000000     3.246000000
H    -3.113000000     2.936000000     3.173000000
H    -3.156000000     1.608000000     2.446000000
