161
-3066.49197
C     0.343000000     0.265000000    -1.411000000
H     0.573000000     0.545000000    -2.435000000
C     0.228000000     1.217000000    -0.425000000
H     0.428000000     2.276000000    -0.565000000
C    -0.109000000     0.832000000     0.927000000
C    -0.515000000     1.898000000     1.890000000
H     0.125000000     2.022000000     2.767000000
H    -0.613000000     2.866000000     1.395000000
H    -1.459000000     1.702000000     2.403000000
C    -0.163000000    -0.557000000     1.230000000
H    -0.473000000    -0.887000000     2.218000000
C     0.024000000    -1.477000000     0.205000000
H    -0.070000000    -2.538000000     0.423000000
C     0.268000000    -1.068000000    -1.121000000
C     0.367000000    -2.090000000    -2.204000000
O     0.535000000    -3.260000000    -1.916000000
O     0.509000000    -1.745000000    -3.375000000
O     1.667000000    -3.665000000     3.251000000
H     1.880000000    -3.954000000     2.364000000
H     0.832000000    -4.089000000     3.447000000
O    -0.991000000    -7.065000000     1.258000000
H    -0.570000000    -7.055000000     0.398000000
H    -1.927000000    -7.003000000     1.068000000
O    -0.398000000     4.394000000     5.989000000
H    -1.136000000     3.792000000     5.897000000
H     0.210000000     3.942000000     6.573000000
O    -1.399000000    -0.027000000     4.857000000
H    -1.660000000     0.817000000     5.227000000
H    -2.157000000    -0.594000000     4.999000000
O    -1.641000000     1.914000000    -6.431000000
H    -1.122000000     1.125000000    -6.276000000
H    -2.070000000     1.758000000    -7.272000000
O     5.058000000    -0.782000000    -4.298000000
H     4.181000000    -1.164000000    -4.270000000
H     5.560000000    -1.373000000    -4.859000000
O    -3.841000000     4.032000000     5.892000000
H    -3.903000000     4.253000000     4.963000000
H    -4.129000000     4.823000000     6.347000000
O     1.338000000    -0.504000000     4.750000000
H     1.865000000    -0.806000000     4.011000000
H     0.539000000    -0.160000000     4.350000000
O     0.574000000    -2.687000000     6.412000000
H     1.039000000    -2.673000000     7.249000000
H     0.742000000    -1.825000000     6.031000000
O     4.324000000     1.618000000    -3.186000000
H     3.620000000     1.845000000    -3.794000000
H     4.682000000     0.799000000    -3.529000000
O    -2.978000000     4.743000000    -2.036000000
H    -2.296000000     5.413000000    -2.078000000
H    -3.181000000     4.552000000    -2.952000000
O    -1.886000000     2.039000000     6.411000000
H    -2.727000000     2.480000000     6.286000000
H    -2.103000000     1.240000000     6.890000000
O     3.978000000     0.711000000     0.076000000
H     3.742000000    -0.129000000     0.469000000
H     4.654000000     1.065000000     0.655000000
O    -3.529000000     3.348000000     0.784000000
H    -3.144000000     3.676000000    -0.028000000
H    -4.434000000     3.138000000     0.553000000
O    -0.403000000    -5.524000000    -2.887000000
H    -0.130000000    -4.827000000    -2.289000000
H    -0.849000000    -5.067000000    -3.599000000
O    -2.543000000     1.541000000    -1.641000000
H    -2.337000000     0.851000000    -2.271000000
H    -1.738000000     1.650000000    -1.135000000
O     2.970000000    -2.542000000    -3.934000000
H     2.140000000    -2.362000000    -3.490000000
H     2.722000000    -2.718000000    -4.841000000
O     0.124000000    -7.746000000    -1.235000000
H    -0.383000000    -7.115000000    -1.747000000
H     0.708000000    -8.157000000    -1.872000000
O     0.108000000     6.612000000    -0.405000000
H     0.804000000     7.233000000    -0.621000000
H    -0.290000000     6.967000000     0.390000000
O     3.151000000    -1.586000000     1.183000000
H     2.291000000    -1.212000000     0.989000000
H     2.998000000    -2.531000000     1.219000000
O     4.075000000    -5.975000000    -2.238000000
H     4.072000000    -5.019000000    -2.197000000
H     4.901000000    -6.230000000    -1.826000000
O    -3.016000000    -3.780000000    -3.846000000
H    -3.492000000    -4.007000000    -4.644000000
H    -2.113000000    -3.652000000    -4.134000000
O     2.661000000     1.583000000     6.297000000
H     2.121000000     0.955000000     5.817000000
H     3.239000000     1.040000000     6.834000000
O    -3.276000000     4.533000000     3.169000000
H    -3.580000000     5.322000000     2.721000000
H    -3.230000000     3.870000000     2.480000000
O    -5.641000000     2.021000000     4.759000000
H    -5.038000000     1.312000000     4.536000000
H    -5.125000000     2.612000000     5.307000000
O     2.558000000    -3.520000000    -6.396000000
H     3.423000000    -3.929000000    -6.382000000
H     2.587000000    -2.924000000    -7.145000000
O     2.552000000     1.939000000    -5.233000000
H     1.598000000     1.947000000    -5.157000000
H     2.718000000     2.016000000    -6.173000000
O     2.994000000     2.985000000    -0.881000000
H     3.446000000     2.666000000    -1.662000000
H     2.991000000     2.237000000    -0.284000000
O     1.891000000    -6.657000000    -4.023000000
H     1.058000000    -6.218000000    -3.848000000
H     2.478000000    -6.337000000    -3.338000000
O     4.302000000     3.501000000     5.041000000
H     3.687000000     2.947000000     5.522000000
H     3.749000000     4.143000000     4.596000000
O     4.929000000    -3.449000000    -2.264000000
H     5.627000000    -2.853000000    -1.993000000
H     4.225000000    -2.873000000    -2.564000000
O    -0.382000000     7.705000000     2.069000000
H    -0.171000000     6.921000000     2.576000000
H    -1.210000000     8.013000000     2.437000000
O    -4.315000000    -1.931000000    -2.035000000
H    -3.756000000    -2.361000000    -2.682000000
H    -3.774000000    -1.881000000    -1.247000000
O     0.030000000    -0.530000000    -5.826000000
H     0.530000000    -0.679000000    -5.024000000
H     0.681000000    -0.577000000    -6.526000000
O     2.248000000    -4.286000000     0.031000000
H     2.412000000    -5.223000000    -0.075000000
H     1.681000000    -4.058000000    -0.705000000
O    -2.183000000    -3.162000000     5.072000000
H    -2.786000000    -3.610000000     5.665000000
H    -1.421000000    -2.957000000     5.614000000
O    -2.125000000    -0.244000000    -3.531000000
H    -1.307000000    -0.520000000    -3.944000000
H    -2.808000000    -0.527000000    -4.138000000
O     3.583000000     4.766000000     1.077000000
H     4.258000000     4.180000000     1.420000000
H     3.328000000     4.374000000     0.241000000
O    -4.619000000    -0.385000000     4.573000000
H    -4.858000000    -0.952000000     5.306000000
H    -4.602000000    -0.969000000     3.815000000
O    -2.859000000    -1.386000000     0.157000000
H    -2.046000000    -0.883000000     0.208000000
H    -3.296000000    -1.221000000     0.992000000
O    -3.406000000    -2.359000000     2.771000000
H    -3.395000000    -3.125000000     2.198000000
H    -2.890000000    -2.623000000     3.533000000
O    -0.407000000    -3.574000000    -5.178000000
H     0.265000000    -3.984000000    -5.722000000
H     0.085000000    -3.048000000    -4.547000000
O    -2.461000000    -3.415000000    -6.956000000
H    -2.180000000    -3.599000000    -7.852000000
H    -1.678000000    -3.558000000    -6.425000000
O     0.047000000    -6.255000000     3.506000000
H    -0.432000000    -6.478000000     2.708000000
H     0.862000000    -6.754000000     3.444000000
O     1.002000000     4.567000000    -2.020000000
H     0.520000000     5.208000000    -1.497000000
H     1.560000000     4.114000000    -1.389000000
O     1.362000000     5.970000000    -4.370000000
H     1.546000000     5.547000000    -3.532000000
H     1.354000000     5.253000000    -5.004000000
O     1.998000000     5.401000000     3.307000000
H     1.088000000     5.311000000     3.022000000
H     2.514000000     5.110000000     2.555000000
O    -0.711000000     5.382000000     3.378000000
H    -1.664000000     5.300000000     3.404000000
H    -0.431000000     5.206000000     4.276000000
