161
-3036.77693
C    -0.343000000    -0.720000000     1.289000000
H    -0.512000000    -1.175000000     2.262000000
C    -0.220000000     0.694000000     1.122000000
H    -0.304000000     1.439000000     1.908000000
C     0.118000000     1.227000000    -0.151000000
C     0.231000000     2.744000000    -0.421000000
H     0.776000000     3.161000000     0.428000000
H     0.782000000     2.880000000    -1.354000000
H    -0.720000000     3.279000000    -0.374000000
C     0.336000000     0.342000000    -1.188000000
H     0.656000000     0.716000000    -2.157000000
C     0.212000000    -1.034000000    -1.008000000
H     0.345000000    -1.716000000    -1.843000000
C    -0.236000000    -1.557000000     0.189000000
C    -0.324000000    -3.030000000     0.368000000
O    -0.053000000    -3.844000000    -0.548000000
O    -0.744000000    -3.400000000     1.472000000
O    -3.533000000     2.916000000    -1.687000000
H    -3.068000000     3.197000000    -0.899000000
H    -3.042000000     2.156000000    -1.998000000
O    -1.662000000     4.766000000    -3.586000000
H    -2.116000000     4.188000000    -2.973000000
H    -1.558000000     5.589000000    -3.107000000
O     1.416000000    -4.305000000     5.058000000
H     1.603000000    -4.232000000     5.994000000
H     1.014000000    -5.168000000     4.960000000
O     0.455000000    -3.429000000    -5.213000000
H     0.397000000    -3.907000000    -4.386000000
H    -0.453000000    -3.341000000    -5.502000000
O     2.178000000     3.788000000     4.398000000
H     2.827000000     4.434000000     4.120000000
H     2.431000000     2.984000000     3.944000000
O    -3.027000000     2.123000000     1.029000000
H    -2.517000000     1.317000000     1.118000000
H    -2.662000000     2.711000000     1.690000000
O    -5.457000000     0.128000000     0.379000000
H    -4.551000000     0.430000000     0.318000000
H    -5.802000000     0.561000000     1.160000000
O     3.231000000     5.200000000     1.660000000
H     4.015000000     5.641000000     1.988000000
H     2.677000000     5.908000000     1.332000000
O    -3.248000000    -4.413000000     1.895000000
H    -3.577000000    -3.745000000     2.497000000
H    -2.379000000    -4.100000000     1.643000000
O    -2.450000000    -2.699000000    -2.479000000
H    -3.094000000    -2.949000000    -1.816000000
H    -1.614000000    -3.006000000    -2.128000000
O     0.582000000     3.631000000    -4.617000000
H    -0.191000000     4.117000000    -4.331000000
H     0.343000000     2.711000000    -4.501000000
O    -3.667000000     6.556000000     1.394000000
H    -4.066000000     7.302000000     1.841000000
H    -2.760000000     6.550000000     1.699000000
O     3.864000000     4.129000000    -1.132000000
H     3.402000000     4.845000000    -0.698000000
H     4.739000000     4.137000000    -0.742000000
O    -2.880000000    -7.176000000     1.010000000
H    -2.084000000    -7.458000000     1.461000000
H    -2.831000000    -6.221000000     1.013000000
O     0.458000000    -6.545000000    -0.631000000
H     0.101000000    -6.677000000    -1.509000000
H     0.198000000    -5.654000000    -0.398000000
O     4.357000000    -4.201000000    -3.167000000
H     3.845000000    -3.941000000    -2.402000000
H     4.316000000    -3.445000000    -3.752000000
O     3.420000000     2.138000000     1.170000000
H     3.264000000     1.968000000     0.241000000
H     3.325000000     3.087000000     1.258000000
O    -0.426000000    -5.959000000     1.952000000
H     0.438000000    -6.156000000     1.589000000
H    -0.584000000    -5.047000000     1.709000000
O    -1.018000000    -6.681000000    -3.259000000
H    -0.497000000    -5.892000000    -3.113000000
H    -1.890000000    -6.455000000    -2.935000000
O     2.394000000    -3.651000000    -1.228000000
H     1.470000000    -3.709000000    -0.982000000
H     2.869000000    -3.920000000    -0.442000000
O     2.887000000     0.302000000    -4.334000000
H     3.026000000     0.947000000    -3.640000000
H     2.261000000     0.719000000    -4.926000000
O     0.228000000    -1.359000000     6.171000000
H    -0.060000000    -1.668000000     5.312000000
H     1.070000000    -0.935000000     6.003000000
O     3.882000000    -1.405000000    -2.598000000
H     3.450000000    -1.068000000    -3.382000000
H     3.324000000    -1.121000000    -1.875000000
O    -0.600000000     1.856000000     5.246000000
H     0.284000000     2.120000000     5.498000000
H    -0.581000000     0.900000000     5.271000000
O    -2.510000000    -0.072000000    -4.863000000
H    -2.658000000    -0.730000000    -5.542000000
H    -3.042000000     0.676000000    -5.135000000
O    -3.811000000     1.052000000     4.397000000
H    -3.268000000     1.758000000     4.046000000
H    -3.923000000     1.273000000     5.321000000
O    -0.582000000    -2.844000000     4.061000000
H    -0.009000000    -3.583000000     4.263000000
H    -0.733000000    -2.909000000     3.118000000
O     1.472000000     7.122000000    -4.211000000
H     0.570000000     6.841000000    -4.057000000
H     2.002000000     6.358000000    -3.988000000
O     3.423000000    -5.005000000     1.036000000
H     2.836000000    -5.676000000     1.384000000
H     4.265000000    -5.450000000     0.940000000
O     2.530000000     0.106000000     6.072000000
H     3.413000000     0.381000000     6.321000000
H     2.404000000     0.471000000     5.196000000
O     0.277000000     5.909000000     4.198000000
H    -0.068000000     5.704000000     5.068000000
H     0.881000000     5.192000000     4.005000000
O    -3.178000000    -6.395000000    -1.795000000
H    -4.014000000    -5.954000000    -1.646000000
H    -3.018000000    -6.884000000    -0.988000000
O    -2.370000000     0.661000000    -2.242000000
H    -2.325000000     0.331000000    -3.140000000
H    -1.739000000     0.128000000    -1.759000000
O     0.641000000     1.143000000    -6.237000000
H     0.735000000     0.213000000    -6.443000000
H     0.140000000     1.501000000    -6.970000000
O    -1.798000000    -7.387000000     4.013000000
H    -1.325000000    -6.804000000     3.419000000
H    -1.134000000    -8.001000000     4.326000000
O    -4.248000000    -3.972000000    -0.832000000
H    -3.820000000    -3.967000000     0.024000000
H    -4.959000000    -3.336000000    -0.749000000
O    -4.910000000     4.191000000     0.800000000
H    -4.236000000     4.853000000     0.955000000
H    -4.486000000     3.361000000     1.022000000
O     3.045000000     2.460000000    -2.920000000
H     3.269000000     3.113000000    -2.256000000
H     2.855000000     2.972000000    -3.706000000
O     2.816000000     6.714000000    -1.065000000
H     2.005000000     7.203000000    -1.200000000
H     3.494000000     7.260000000    -1.463000000
O    -2.765000000    -3.800000000    -4.942000000
H    -3.712000000    -3.942000000    -4.952000000
H    -2.591000000    -3.412000000    -4.084000000
O     3.422000000     5.141000000    -3.739000000
H     4.126000000     5.789000000    -3.726000000
H     3.457000000     4.731000000    -2.875000000
O     3.019000000    -0.855000000     0.031000000
H     2.995000000    -1.487000000     0.749000000
H     2.098000000    -0.692000000    -0.174000000
O     0.829000000    -4.962000000    -3.127000000
H     1.366000000    -5.689000000    -3.440000000
H     1.308000000    -4.618000000    -2.373000000
O    -2.029000000     3.265000000     3.275000000
H    -2.451000000     3.995000000     3.727000000
H    -1.386000000     2.934000000     3.901000000
O    -4.183000000    -2.268000000     3.405000000
H    -3.901000000    -1.498000000     3.898000000
H    -5.092000000    -2.403000000     3.670000000
O     2.831000000     1.005000000     3.542000000
H     2.752000000     1.348000000     2.652000000
H     3.326000000     0.191000000     3.442000000
O    -1.190000000     6.885000000    -1.949000000
H    -2.092000000     7.204000000    -1.931000000
H    -0.787000000     7.258000000    -1.165000000
O     2.886000000    -2.742000000     2.602000000
H     2.307000000    -2.816000000     3.361000000
H     3.069000000    -3.648000000     2.352000000
