161
-3023.64730
C     0.248000000    -1.019000000     1.141000000
H     0.423000000    -1.806000000     1.870000000
C     1.201000000    -0.168000000     0.615000000
H     2.211000000    -0.087000000     1.006000000
C     0.827000000     0.835000000    -0.356000000
C     1.787000000     1.832000000    -0.875000000
H     2.187000000     1.601000000    -1.864000000
H     1.255000000     2.784000000    -0.832000000
H     2.709000000     1.878000000    -0.291000000
C    -0.448000000     0.781000000    -0.970000000
H    -0.650000000     1.403000000    -1.838000000
C    -1.308000000    -0.166000000    -0.473000000
H    -2.234000000    -0.253000000    -1.037000000
C    -1.035000000    -0.982000000     0.613000000
C    -2.111000000    -1.931000000     1.005000000
O    -3.226000000    -1.804000000     0.673000000
O    -1.838000000    -2.894000000     1.612000000
O    -0.521000000     3.285000000     4.273000000
H    -0.041000000     3.955000000     4.759000000
H     0.021000000     3.112000000     3.503000000
O     3.955000000     6.360000000     0.883000000
H     4.369000000     5.606000000     1.304000000
H     3.597000000     6.872000000     1.608000000
O    -0.879000000     2.621000000    -4.126000000
H    -0.815000000     3.220000000    -3.382000000
H    -0.710000000     3.171000000    -4.891000000
O    -4.215000000    -2.582000000    -1.907000000
H    -3.726000000    -2.340000000    -1.121000000
H    -4.639000000    -1.770000000    -2.184000000
O     4.820000000    -1.759000000     1.374000000
H     5.094000000    -1.221000000     0.631000000
H     5.067000000    -1.246000000     2.144000000
O     1.885000000     3.776000000     2.407000000
H     2.799000000     3.620000000     2.170000000
H     1.604000000     4.482000000     1.825000000
O    -4.738000000     0.488000000     0.590000000
H    -4.364000000    -0.383000000     0.458000000
H    -3.996000000     1.084000000     0.487000000
O    -1.517000000    -0.160000000     4.564000000
H    -1.363000000    -1.080000000     4.352000000
H    -1.859000000     0.219000000     3.755000000
O     5.641000000     0.432000000    -0.056000000
H     5.589000000     0.589000000    -0.999000000
H     6.527000000     0.703000000     0.184000000
O     3.708000000     0.654000000     5.997000000
H     3.377000000     0.758000000     6.889000000
H     2.942000000     0.794000000     5.440000000
O    -4.385000000    -6.766000000     3.131000000
H    -5.282000000    -6.448000000     3.032000000
H    -3.843000000    -6.075000000     2.748000000
O    -3.917000000     4.066000000    -2.465000000
H    -3.006000000     4.338000000    -2.580000000
H    -4.175000000     4.443000000    -1.624000000
O     0.647000000     5.804000000     1.205000000
H     0.054000000     5.941000000     1.943000000
H     0.667000000     6.648000000     0.754000000
O    -0.817000000     4.722000000    -2.105000000
H    -1.256000000     5.542000000    -2.334000000
H     0.037000000     4.994000000    -1.768000000
O    -3.686000000     1.683000000    -5.373000000
H    -3.882000000     0.801000000    -5.056000000
H    -2.802000000     1.861000000    -5.053000000
O     2.363000000     3.907000000    -4.279000000
H     1.918000000     4.092000000    -3.452000000
H     2.009000000     4.552000000    -4.891000000
O     5.988000000     1.220000000    -2.764000000
H     5.216000000     0.709000000    -3.007000000
H     6.042000000     1.905000000    -3.431000000
O    -7.436000000     0.285000000     0.250000000
H    -7.477000000     0.383000000    -0.702000000
H    -6.516000000     0.434000000     0.467000000
O    -1.742000000    -3.775000000     4.333000000
H    -0.948000000    -4.306000000     4.395000000
H    -1.658000000    -3.316000000     3.497000000
O     3.402000000     2.456000000    -6.429000000
H     3.067000000     2.770000000    -5.589000000
H     4.146000000     1.900000000    -6.198000000
O    -2.557000000    -5.383000000     6.463000000
H    -2.481000000    -4.679000000     5.818000000
H    -3.352000000    -5.853000000     6.212000000
O     4.731000000     3.858000000     2.267000000
H     5.012000000     3.187000000     2.889000000
H     5.433000000     3.891000000     1.617000000
O     1.713000000    -2.450000000     4.935000000
H     1.368000000    -3.313000000     4.707000000
H     2.512000000    -2.634000000     5.428000000
O    -3.525000000    -4.690000000     1.577000000
H    -2.793000000    -4.093000000     1.732000000
H    -3.893000000    -4.406000000     0.740000000
O    -2.898000000     2.457000000     0.231000000
H    -2.002000000     2.173000000     0.053000000
H    -2.845000000     2.899000000     1.079000000
O     0.862000000    -5.021000000     3.890000000
H     0.698000000    -5.207000000     2.965000000
H     1.288000000    -5.812000000     4.221000000
O     1.893000000     5.276000000    -1.415000000
H     2.213000000     6.120000000    -1.733000000
H     2.107000000     5.275000000    -0.482000000
O     1.218000000     0.273000000     4.919000000
H     1.430000000    -0.635000000     4.702000000
H     0.280000000     0.348000000     4.746000000
O     0.808000000     0.107000000    -4.150000000
H     0.140000000     0.785000000    -4.260000000
H     0.545000000    -0.588000000    -4.753000000
O     3.719000000    -0.168000000    -3.687000000
H     3.419000000    -0.469000000    -2.829000000
H     2.914000000    -0.034000000    -4.187000000
O     0.155000000    -4.938000000     1.062000000
H    -0.719000000    -4.583000000     1.229000000
H     0.612000000    -4.238000000     0.596000000
O    -4.813000000     0.012000000     3.702000000
H    -4.712000000     0.320000000     2.801000000
H    -4.597000000    -0.919000000     3.662000000
O    -4.005000000     1.413000000    -2.219000000
H    -3.764000000     2.204000000    -2.702000000
H    -4.077000000     1.700000000    -1.309000000
O    -3.351000000    -1.193000000    -4.977000000
H    -2.765000000    -1.328000000    -4.233000000
H    -3.594000000    -2.077000000    -5.254000000
O    -6.649000000     0.469000000    -2.274000000
H    -5.793000000     0.880000000    -2.159000000
H    -6.916000000     0.715000000    -3.159000000
O     2.958000000    -3.891000000    -2.649000000
H     3.230000000    -4.264000000    -1.810000000
H     2.648000000    -3.012000000    -2.432000000
O     4.616000000    -2.831000000     4.553000000
H     5.447000000    -2.626000000     4.981000000
H     4.415000000    -2.053000000     4.034000000
O     1.510000000    -1.678000000    -1.920000000
H     1.135000000    -0.806000000    -2.041000000
H     1.480000000    -1.823000000    -0.974000000
O    -7.788000000    -2.427000000    -1.253000000
H    -7.380000000    -1.583000000    -1.064000000
H    -7.914000000    -2.425000000    -2.202000000
O     4.951000000     3.996000000    -2.621000000
H     4.091000000     3.587000000    -2.718000000
H     5.385000000     3.843000000    -3.460000000
O    -2.990000000    -4.724000000    -3.676000000
H    -2.673000000    -3.893000000    -3.321000000
H    -3.817000000    -4.880000000    -3.220000000
O     5.140000000    -0.239000000     3.543000000
H     5.411000000     0.587000000     3.144000000
H     4.504000000     0.015000000     4.212000000
O     5.403000000     0.345000000    -5.736000000
H     6.211000000     0.048000000    -5.317000000
H     4.727000000     0.216000000    -5.071000000
O    -0.954000000    -2.477000000    -3.444000000
H    -0.704000000    -3.314000000    -3.836000000
H    -0.251000000    -2.284000000    -2.824000000
O     0.337000000    -7.629000000     0.352000000
H     0.050000000    -6.718000000     0.425000000
H     1.197000000    -7.643000000     0.774000000
O    -4.661000000    -2.640000000     3.427000000
H    -4.116000000    -3.183000000     3.996000000
H    -4.318000000    -2.796000000     2.547000000
O     2.670000000    -3.062000000     0.618000000
H     3.428000000    -2.510000000     0.814000000
H     3.047000000    -3.897000000     0.341000000
O     6.072000000     4.129000000     0.023000000
H     6.203000000     4.936000000    -0.474000000
H     6.412000000     3.439000000    -0.546000000
