161
-3031.67469
C    -0.665000000    -1.118000000    -0.813000000
H    -0.956000000    -1.859000000    -1.553000000
C     0.177000000    -0.034000000    -1.310000000
H     0.448000000     0.027000000    -2.361000000
C     0.581000000     1.006000000    -0.417000000
C     1.482000000     2.050000000    -1.000000000
H     2.419000000     1.644000000    -1.387000000
H     0.985000000     2.708000000    -1.715000000
H     1.798000000     2.585000000    -0.102000000
C     0.391000000     0.882000000     0.900000000
H     0.667000000     1.695000000     1.566000000
C    -0.198000000    -0.268000000     1.409000000
H    -0.311000000    -0.392000000     2.483000000
C    -0.805000000    -1.183000000     0.581000000
C    -1.734000000    -2.286000000     1.072000000
O    -1.775000000    -2.563000000     2.279000000
O    -2.508000000    -2.891000000     0.373000000
O     4.597000000     4.062000000    -2.149000000
H     4.046000000     3.384000000    -1.758000000
H     5.261000000     4.244000000    -1.484000000
O     2.461000000    -3.080000000    -0.025000000
H     3.021000000    -3.811000000    -0.284000000
H     2.911000000    -2.686000000     0.723000000
O    -5.521000000    -0.622000000     1.246000000
H    -4.985000000    -0.824000000     2.013000000
H    -6.033000000     0.143000000     1.506000000
O    -5.133000000    -3.958000000     4.255000000
H    -5.012000000    -4.688000000     4.862000000
H    -4.840000000    -4.299000000     3.410000000
O     2.697000000     6.241000000     1.049000000
H     2.758000000     6.651000000     1.912000000
H     2.525000000     6.967000000     0.450000000
O     3.422000000    -1.218000000     1.826000000
H     3.951000000    -1.432000000     2.594000000
H     3.128000000    -0.320000000     1.981000000
O    -2.429000000     2.945000000     2.915000000
H    -3.000000000     3.360000000     2.269000000
H    -1.596000000     3.409000000     2.833000000
O     1.257000000     7.333000000    -1.875000000
H     1.726000000     6.865000000    -2.567000000
H     0.820000000     6.644000000    -1.374000000
O     1.987000000    -2.366000000    -6.527000000
H     2.116000000    -2.040000000    -5.637000000
H     2.222000000    -1.628000000    -7.090000000
O    -4.474000000    -5.554000000    -1.875000000
H    -4.683000000    -5.032000000    -1.101000000
H    -4.169000000    -6.391000000    -1.525000000
O    -1.008000000     5.015000000     1.440000000
H    -0.908000000     5.374000000     0.558000000
H    -0.568000000     5.648000000     2.007000000
O    -0.100000000    -2.089000000     6.760000000
H    -1.051000000    -2.090000000     6.873000000
H     0.097000000    -1.223000000     6.402000000
O     6.252000000    -0.414000000     0.030000000
H     6.036000000     0.420000000     0.447000000
H     5.427000000    -0.712000000    -0.352000000
O     0.747000000    -3.272000000     3.024000000
H    -0.158000000    -3.236000000     2.714000000
H     1.248000000    -2.809000000     2.353000000
O     2.730000000     5.779000000    -3.617000000
H     3.170000000     5.351000000    -4.351000000
H     3.350000000     5.707000000    -2.891000000
O    -2.087000000     1.307000000     4.833000000
H    -2.624000000     1.727000000     5.504000000
H    -2.225000000     1.838000000     4.048000000
O     2.480000000    -0.192000000    -4.751000000
H     2.736000000    -0.195000000    -3.828000000
H     3.074000000     0.436000000    -5.162000000
O     0.662000000    -5.951000000     3.600000000
H    -0.233000000    -5.837000000     3.919000000
H     0.868000000    -5.123000000     3.165000000
O     0.552000000     4.309000000    -5.330000000
H    -0.016000000     3.685000000    -4.879000000
H     0.740000000     4.980000000    -4.673000000
O     5.338000000     1.792000000     1.338000000
H     5.267000000     2.743000000     1.263000000
H     4.584000000     1.536000000     1.870000000
O    -4.167000000    -0.579000000    -1.439000000
H    -4.261000000     0.352000000    -1.236000000
H    -4.030000000    -0.997000000    -0.589000000
O     0.074000000     1.070000000     6.114000000
H    -0.592000000     1.166000000     5.433000000
H    -0.231000000     1.631000000     6.827000000
O    -6.934000000    -1.170000000    -0.917000000
H    -6.198000000    -1.432000000    -1.470000000
H    -6.526000000    -0.808000000    -0.131000000
O     3.390000000    -0.766000000    -2.150000000
H     2.793000000    -0.157000000    -1.714000000
H     3.246000000    -1.602000000    -1.705000000
O    -2.771000000    -1.262000000     7.014000000
H    -2.577000000    -0.708000000     6.258000000
H    -3.603000000    -0.929000000     7.348000000
O    -1.728000000    -6.478000000     0.770000000
H    -2.005000000    -7.104000000     0.101000000
H    -1.042000000    -5.963000000     0.346000000
O    -3.507000000    -0.757000000     3.184000000
H    -3.015000000    -0.125000000     3.709000000
H    -2.861000000    -1.418000000     2.937000000
O    -3.661000000    -4.928000000     2.003000000
H    -3.120000000    -4.183000000     1.740000000
H    -3.176000000    -5.695000000     1.700000000
O     0.184000000    -4.701000000     0.012000000
H     1.050000000    -4.312000000    -0.112000000
H    -0.399000000    -3.953000000     0.138000000
O    -1.172000000    -5.211000000    -4.409000000
H    -1.967000000    -4.717000000    -4.207000000
H    -0.473000000    -4.733000000    -3.964000000
O    -6.183000000    -6.332000000     1.942000000
H    -5.323000000    -5.913000000     1.899000000
H    -6.467000000    -6.205000000     2.847000000
O    -1.772000000    -3.964000000     4.603000000
H    -0.923000000    -3.573000000     4.809000000
H    -2.053000000    -3.518000000     3.804000000
O    -5.781000000    -1.490000000     4.428000000
H    -4.870000000    -1.199000000     4.420000000
H    -5.730000000    -2.440000000     4.318000000
O     5.004000000     2.013000000    -4.597000000
H     5.007000000     2.805000000    -4.060000000
H     5.926000000     1.766000000    -4.666000000
O     5.560000000    -1.919000000    -3.709000000
H     4.895000000    -1.283000000    -3.444000000
H     5.060000000    -2.653000000    -4.066000000
O    -2.602000000     1.481000000     0.045000000
H    -1.710000000     1.142000000     0.116000000
H    -2.578000000     2.318000000     0.508000000
O    -2.797000000    -3.466000000    -2.729000000
H    -2.956000000    -2.854000000    -2.010000000
H    -3.378000000    -4.205000000    -2.547000000
O     5.624000000     4.478000000     0.769000000
H     5.842000000     5.156000000     0.130000000
H     4.685000000     4.584000000     0.920000000
O    -3.269000000     0.408000000    -3.925000000
H    -2.372000000     0.096000000    -4.043000000
H    -3.546000000     0.031000000    -3.090000000
O    -5.086000000    -3.481000000    -0.212000000
H    -5.480000000    -2.665000000     0.096000000
H    -4.161000000    -3.404000000     0.022000000
O    -0.806000000    -0.185000000    -5.369000000
H     0.150000000    -0.158000000    -5.327000000
H    -0.999000000    -0.907000000    -5.966000000
O     0.914000000    -3.722000000    -2.987000000
H     1.828000000    -3.738000000    -2.704000000
H     0.412000000    -3.676000000    -2.174000000
O    -1.561000000     3.135000000    -2.024000000
H    -1.252000000     2.744000000    -2.841000000
H    -1.818000000     2.388000000    -1.483000000
O     1.881000000     3.815000000     3.087000000
H     1.398000000     4.102000000     3.862000000
H     2.044000000     4.619000000     2.594000000
O     3.113000000     1.312000000     2.858000000
H     2.516000000     2.058000000     2.788000000
H     3.480000000     1.382000000     3.740000000
O    -0.908000000     5.665000000    -1.128000000
H    -1.175000000     4.782000000    -1.382000000
H    -1.419000000     6.242000000    -1.695000000
O    -1.292000000     2.385000000    -4.627000000
H    -2.193000000     2.703000000    -4.683000000
H    -1.331000000     1.492000000    -4.970000000
O    -3.129000000    -2.640000000    -5.508000000
H    -3.083000000    -1.684000000    -5.526000000
H    -3.357000000    -2.852000000    -4.603000000
