161
-3083.57298
C    -0.857000000    -1.064000000    -0.611000000
H    -1.436000000    -1.845000000    -1.096000000
C     0.035000000    -0.227000000    -1.362000000
H     0.235000000    -0.391000000    -2.418000000
C     0.756000000     0.750000000    -0.634000000
C     1.776000000     1.532000000    -1.394000000
H     2.076000000     1.069000000    -2.336000000
H     1.443000000     2.564000000    -1.522000000
H     2.666000000     1.527000000    -0.761000000
C     0.625000000     0.897000000     0.757000000
H     1.212000000     1.652000000     1.273000000
C    -0.254000000     0.087000000     1.497000000
H    -0.320000000     0.089000000     2.582000000
C    -1.036000000    -0.809000000     0.788000000
C    -2.064000000    -1.709000000     1.539000000
O    -2.093000000    -1.655000000     2.755000000
O    -2.758000000    -2.467000000     0.949000000
O    -0.271000000    -3.129000000     6.861000000
H     0.126000000    -3.771000000     6.273000000
H    -1.024000000    -2.793000000     6.375000000
O     3.218000000     4.609000000    -2.765000000
H     3.936000000     4.740000000    -3.385000000
H     2.582000000     5.289000000    -2.988000000
O    -0.781000000     3.223000000     1.554000000
H    -1.018000000     2.909000000     2.427000000
H    -0.652000000     2.426000000     1.040000000
O    -5.029000000     0.666000000    -2.230000000
H    -4.663000000     0.248000000    -3.009000000
H    -4.994000000    -0.012000000    -1.555000000
O    -5.530000000    -2.563000000     5.344000000
H    -6.037000000    -2.991000000     6.033000000
H    -5.544000000    -3.183000000     4.615000000
O    -1.066000000    -6.397000000    -2.034000000
H    -0.544000000    -5.899000000    -1.406000000
H    -1.658000000    -6.919000000    -1.493000000
O     0.306000000    -4.800000000     4.720000000
H     0.657000000    -4.024000000     4.283000000
H    -0.491000000    -5.010000000     4.232000000
O     3.206000000     4.404000000     4.035000000
H     2.328000000     4.503000000     3.667000000
H     3.479000000     5.296000000     4.248000000
O     3.626000000     0.071000000     2.211000000
H     4.013000000     0.933000000     2.057000000
H     3.082000000    -0.088000000     1.440000000
O     4.529000000     2.594000000     1.401000000
H     4.038000000     3.409000000     1.297000000
H     5.100000000     2.753000000     2.153000000
O     2.425000000     7.059000000    -0.288000000
H     3.306000000     6.967000000    -0.652000000
H     1.912000000     6.382000000    -0.730000000
O     1.924000000    -3.552000000    -4.939000000
H     1.525000000    -2.731000000    -5.226000000
H     2.517000000    -3.295000000    -4.232000000
O     2.233000000     4.123000000     0.513000000
H     1.876000000     4.490000000    -0.296000000
H     1.482000000     3.711000000     0.940000000
O    -1.932000000     0.379000000     6.866000000
H    -2.272000000    -0.265000000     6.244000000
H    -2.701000000     0.663000000     7.360000000
O     5.604000000    -0.627000000    -1.609000000
H     5.105000000    -0.612000000    -2.426000000
H     5.928000000     0.268000000    -1.510000000
O    -1.845000000     5.785000000     1.176000000
H    -1.499000000     4.893000000     1.129000000
H    -2.185000000     5.863000000     2.067000000
O    -1.764000000    -5.396000000     3.009000000
H    -2.283000000    -4.663000000     2.678000000
H    -2.330000000    -5.819000000     3.654000000
O     2.036000000     1.598000000    -5.112000000
H     2.751000000     1.479000000    -4.487000000
H     2.020000000     2.540000000    -5.281000000
O    -0.676000000     1.772000000     4.445000000
H    -0.740000000     2.498000000     5.066000000
H    -0.056000000     1.165000000     4.849000000
O     0.939000000    -0.773000000    -4.966000000
H     1.178000000     0.102000000    -5.271000000
H    -0.015000000    -0.746000000    -4.886000000
O     1.614000000     4.213000000    -5.854000000
H     1.548000000     4.833000000    -6.580000000
H     0.727000000     4.165000000    -5.499000000
O    -3.461000000     2.151000000    -0.065000000
H    -3.977000000     2.261000000     0.734000000
H    -3.709000000     1.287000000    -0.393000000
O    -4.698000000     2.484000000     2.520000000
H    -4.912000000     3.233000000     3.077000000
H    -4.353000000     1.827000000     3.124000000
O     4.819000000     2.874000000    -1.678000000
H     4.084000000     3.471000000    -1.818000000
H     4.865000000     2.770000000    -0.727000000
O    -1.458000000     0.979000000    -3.756000000
H    -1.385000000     1.058000000    -2.805000000
H    -2.197000000     1.541000000    -3.987000000
O    -2.955000000    -7.286000000     0.101000000
H    -3.837000000    -7.650000000     0.015000000
H    -3.064000000    -6.352000000    -0.074000000
O    -3.171000000     0.804000000     3.975000000
H    -2.409000000     1.258000000     4.335000000
H    -2.802000000     0.084000000     3.465000000
O    -4.431000000    -3.531000000     2.973000000
H    -3.725000000    -3.075000000     2.514000000
H    -5.233000000    -3.186000000     2.581000000
O    -2.863000000    -4.561000000    -0.404000000
H    -1.919000000    -4.714000000    -0.382000000
H    -2.993000000    -3.784000000     0.140000000
O    -0.145000000    -5.272000000     0.101000000
H    -0.095000000    -5.827000000     0.879000000
H     0.360000000    -4.491000000     0.331000000
O    -6.632000000    -2.738000000     1.708000000
H    -6.841000000    -3.038000000     0.823000000
H    -7.485000000    -2.591000000     2.118000000
O     0.526000000    -2.447000000     3.563000000
H     0.812000000    -1.666000000     4.038000000
H    -0.360000000    -2.237000000     3.269000000
O     1.598000000    -0.184000000     4.258000000
H     2.117000000     0.406000000     4.804000000
H     2.135000000    -0.323000000     3.478000000
O     4.785000000     1.429000000    -4.225000000
H     5.664000000     1.718000000    -4.470000000
H     4.667000000     1.751000000    -3.332000000
O    -4.635000000     0.384000000     6.241000000
H    -4.172000000     0.690000000     5.461000000
H    -4.698000000    -0.564000000     6.125000000
O     3.075000000    -1.293000000    -3.286000000
H     3.623000000    -1.099000000    -4.046000000
H     2.184000000    -1.098000000    -3.576000000
O     0.451000000     5.057000000    -1.348000000
H     0.462000000     5.647000000    -2.101000000
H    -0.438000000     4.700000000    -1.337000000
O    -4.700000000    -4.292000000    -2.777000000
H    -3.923000000    -4.092000000    -2.255000000
H    -4.976000000    -5.157000000    -2.474000000
O    -2.707000000    -2.392000000     5.262000000
H    -3.597000000    -2.738000000     5.199000000
H    -2.489000000    -2.125000000     4.369000000
O    -3.256000000    -1.159000000    -3.602000000
H    -2.937000000    -1.823000000    -4.213000000
H    -2.659000000    -0.420000000    -3.718000000
O    -4.741000000    -0.904000000     0.216000000
H    -4.106000000    -1.593000000     0.412000000
H    -5.408000000    -0.992000000     0.897000000
O    -1.664000000    -2.053000000    -5.715000000
H    -1.122000000    -1.709000000    -6.425000000
H    -1.438000000    -2.982000000    -5.669000000
O     1.522000000    -3.072000000     0.898000000
H     1.198000000    -2.923000000     1.787000000
H     2.439000000    -3.318000000     1.015000000
O     0.709000000     5.488000000     3.204000000
H     0.896000000     6.338000000     2.805000000
H    -0.211000000     5.324000000     2.999000000
O     3.255000000     2.011000000     5.254000000
H     3.157000000     2.814000000     4.743000000
H     3.353000000     2.312000000     6.158000000
O    -2.184000000     4.361000000    -1.294000000
H    -2.452000000     4.879000000    -0.534000000
H    -2.345000000     3.454000000    -1.034000000
O     2.360000000    -3.353000000    -1.670000000
H     2.326000000    -3.020000000    -0.773000000
H     2.444000000    -2.570000000    -2.214000000
O    -0.839000000     4.343000000    -4.583000000
H    -1.627000000     4.491000000    -5.105000000
H    -1.153000000     4.309000000    -3.679000000
