161
-3025.20779
C    -0.716000000    -1.097000000    -0.596000000
H    -1.208000000    -1.851000000    -1.205000000
C    -0.090000000    -0.083000000    -1.350000000
H    -0.046000000    -0.138000000    -2.435000000
C     0.502000000     0.937000000    -0.593000000
C     1.176000000     2.026000000    -1.419000000
H     0.425000000     2.806000000    -1.559000000
H     2.010000000     2.445000000    -0.852000000
H     1.636000000     1.692000000    -2.351000000
C     0.505000000     0.927000000     0.791000000
H     0.907000000     1.774000000     1.341000000
C    -0.103000000    -0.126000000     1.523000000
H    -0.075000000    -0.088000000     2.609000000
C    -0.636000000    -1.166000000     0.810000000
C    -1.310000000    -2.354000000     1.585000000
O    -1.238000000    -2.400000000     2.793000000
O    -1.734000000    -3.296000000     0.915000000
O     4.461000000     4.395000000    -2.076000000
H     5.054000000     4.272000000    -1.335000000
H     4.844000000     5.119000000    -2.571000000
O     3.075000000     7.293000000    -0.152000000
H     3.155000000     8.112000000     0.337000000
H     3.280000000     6.611000000     0.488000000
O     1.246000000     6.997000000    -2.348000000
H     1.373000000     6.065000000    -2.527000000
H     1.704000000     7.147000000    -1.521000000
O    -3.671000000     0.933000000     2.123000000
H    -3.410000000     0.974000000     3.043000000
H    -4.628000000     0.914000000     2.146000000
O     2.368000000    -3.073000000     1.008000000
H     2.491000000    -4.011000000     1.155000000
H     1.810000000    -2.789000000     1.732000000
O     2.353000000    -0.145000000     4.102000000
H     3.310000000    -0.117000000     4.106000000
H     2.088000000     0.747000000     3.879000000
O    -1.139000000     3.720000000     3.124000000
H    -2.033000000     3.377000000     3.132000000
H    -1.247000000     4.670000000     3.156000000
O     5.339000000    -1.270000000    -3.247000000
H     5.021000000    -1.519000000    -2.379000000
H     4.560000000    -0.955000000    -3.706000000
O     0.134000000     6.088000000     1.337000000
H    -0.413000000     5.651000000     0.684000000
H    -0.181000000     6.992000000     1.346000000
O    -5.100000000    -5.793000000    -1.504000000
H    -4.924000000    -6.712000000    -1.708000000
H    -4.235000000    -5.384000000    -1.476000000
O    -0.561000000    -2.252000000     7.120000000
H    -1.180000000    -1.892000000     7.756000000
H    -0.275000000    -1.494000000     6.611000000
O     4.773000000    -1.826000000     1.124000000
H     4.319000000    -0.987000000     1.203000000
H     4.084000000    -2.482000000     1.231000000
O     1.428000000    -2.596000000     3.471000000
H     0.482000000    -2.540000000     3.340000000
H     1.720000000    -1.685000000     3.506000000
O     2.288000000     2.757000000    -6.408000000
H     1.335000000     2.817000000    -6.475000000
H     2.592000000     3.659000000    -6.511000000
O    -3.029000000     1.229000000     4.848000000
H    -3.785000000     1.318000000     5.428000000
H    -2.284000000     1.508000000     5.381000000
O     3.088000000    -0.476000000    -4.464000000
H     2.146000000    -0.442000000    -4.627000000
H     3.469000000     0.078000000    -5.146000000
O     0.630000000    -6.212000000     5.587000000
H     1.260000000    -5.570000000     5.261000000
H    -0.210000000    -5.929000000     5.226000000
O     1.525000000     4.584000000    -3.179000000
H     1.449000000     3.945000000    -3.887000000
H     2.369000000     4.392000000    -2.771000000
O    -4.042000000    -0.701000000    -0.168000000
H    -4.806000000    -0.980000000     0.336000000
H    -3.429000000    -0.371000000     0.490000000
O    -6.621000000    -4.506000000     0.570000000
H    -6.453000000    -4.989000000    -0.239000000
H    -5.766000000    -4.155000000     0.821000000
O    -1.071000000     2.274000000     6.264000000
H    -1.095000000     2.446000000     7.206000000
H    -0.717000000     3.078000000     5.883000000
O     4.238000000     1.157000000     0.647000000
H     4.600000000     1.865000000     0.113000000
H     4.343000000     1.460000000     1.549000000
O    -3.872000000    -1.500000000    -2.682000000
H    -3.726000000    -1.102000000    -1.824000000
H    -3.146000000    -2.116000000    -2.787000000
O     0.261000000    -0.099000000     5.984000000
H     0.813000000     0.018000000     5.211000000
H    -0.119000000     0.766000000     6.139000000
O     0.968000000    -3.489000000    -1.403000000
H     1.632000000    -4.168000000    -1.522000000
H     1.348000000    -2.893000000    -0.757000000
O    -1.805000000    -7.157000000     2.471000000
H    -1.991000000    -7.633000000     1.662000000
H    -1.139000000    -6.515000000     2.223000000
O    -3.338000000    -1.546000000     4.387000000
H    -3.160000000    -0.624000000     4.574000000
H    -2.637000000    -1.810000000     3.793000000
O    -3.253000000    -4.953000000     3.778000000
H    -2.617000000    -4.674000000     4.437000000
H    -2.859000000    -5.729000000     3.378000000
O    -0.201000000    -5.507000000     1.156000000
H     0.486000000    -5.271000000     0.532000000
H    -0.727000000    -4.713000000     1.246000000
O    -0.938000000    -4.699000000    -2.724000000
H    -1.715000000    -4.670000000    -2.165000000
H    -0.245000000    -4.309000000    -2.192000000
O    -1.275000000    -4.173000000     5.270000000
H    -1.056000000    -3.505000000     5.920000000
H    -1.246000000    -3.712000000     4.432000000
O     2.711000000    -4.527000000     4.684000000
H     2.244000000    -3.858000000     4.185000000
H     3.362000000    -4.039000000     5.188000000
O    -5.507000000    -1.615000000     2.801000000
H    -4.813000000    -1.194000000     3.308000000
H    -5.086000000    -2.380000000     2.408000000
O     6.108000000     2.369000000    -3.248000000
H     5.478000000     2.961000000    -2.837000000
H     6.266000000     1.692000000    -2.590000000
O     3.244000000    -2.029000000    -1.449000000
H     3.014000000    -2.477000000    -0.635000000
H     2.980000000    -1.120000000    -1.305000000
O    -2.157000000     2.402000000     0.516000000
H    -1.282000000     2.026000000     0.415000000
H    -2.627000000     1.771000000     1.060000000
O    -3.090000000    -4.075000000    -1.301000000
H    -2.714000000    -3.645000000    -0.533000000
H    -4.011000000    -3.814000000    -1.295000000
O    -4.306000000    -3.609000000     6.704000000
H    -5.025000000    -3.004000000     6.888000000
H    -3.921000000    -3.284000000     5.891000000
O     6.051000000     3.967000000     0.233000000
H     6.620000000     4.734000000     0.176000000
H     5.615000000     4.054000000     1.081000000
O    -2.804000000    -0.473000000    -4.797000000
H    -1.907000000    -0.713000000    -4.566000000
H    -3.338000000    -0.827000000    -4.086000000
O    -4.330000000    -3.991000000     1.517000000
H    -4.171000000    -4.028000000     2.460000000
H    -3.497000000    -3.698000000     1.146000000
O    -0.688000000    -1.991000000    -4.232000000
H    -0.472000000    -2.190000000    -3.321000000
H    -0.628000000    -2.834000000    -4.681000000
O     4.554000000     1.486000000    -5.548000000
H     5.038000000     2.039000000    -4.935000000
H     3.858000000     2.051000000    -5.883000000
O    -1.547000000     4.591000000    -0.765000000
H    -1.699000000     3.721000000    -0.394000000
H    -2.406000000     5.013000000    -0.745000000
O     1.390000000     2.558000000     3.747000000
H     1.702000000     3.333000000     4.215000000
H     0.570000000     2.838000000     3.341000000
O     4.503000000     2.529000000     3.045000000
H     3.696000000     2.977000000     2.792000000
H     4.755000000     2.938000000     3.873000000
O    -2.053000000     4.636000000    -3.508000000
H    -1.683000000     4.027000000    -4.147000000
H    -1.519000000     4.514000000    -2.723000000
O    -1.740000000     2.352000000    -4.909000000
H    -1.117000000     2.256000000    -5.629000000
H    -2.097000000     1.473000000    -4.782000000
