161
-3032.79174
C    -0.718000000    -1.003000000    -0.771000000
H    -1.131000000    -1.742000000    -1.453000000
C    -0.016000000     0.083000000    -1.291000000
H     0.047000000     0.285000000    -2.358000000
C     0.696000000     0.867000000    -0.446000000
C     1.300000000     2.000000000    -1.055000000
H     0.524000000     2.493000000    -1.645000000
H     1.663000000     2.738000000    -0.336000000
H     2.122000000     1.616000000    -1.663000000
C     0.694000000     0.739000000     0.884000000
H     1.250000000     1.419000000     1.525000000
C    -0.039000000    -0.322000000     1.367000000
H    -0.064000000    -0.461000000     2.445000000
C    -0.771000000    -1.175000000     0.595000000
C    -1.669000000    -2.199000000     1.243000000
O    -1.911000000    -2.154000000     2.382000000
O    -1.976000000    -3.182000000     0.582000000
O     5.651000000     3.115000000    -2.998000000
H     4.921000000     2.711000000    -3.467000000
H     5.388000000     3.088000000    -2.078000000
O     1.766000000     6.360000000    -0.570000000
H     1.902000000     7.016000000     0.114000000
H     1.008000000     5.857000000    -0.272000000
O    -0.099000000     4.600000000    -2.806000000
H     0.750000000     4.233000000    -3.053000000
H     0.113000000     5.288000000    -2.175000000
O    -5.911000000    -2.399000000     1.725000000
H    -5.296000000    -1.795000000     2.140000000
H    -6.764000000    -1.975000000     1.820000000
O    -4.917000000     0.457000000    -0.756000000
H    -4.997000000     0.725000000     0.160000000
H    -5.694000000     0.821000000    -1.180000000
O    -0.217000000     7.553000000    -1.818000000
H    -0.038000000     7.968000000    -2.661000000
H     0.610000000     7.137000000    -1.575000000
O    -2.787000000     1.138000000    -2.621000000
H    -2.801000000     0.317000000    -3.114000000
H    -3.369000000     0.980000000    -1.878000000
O     1.310000000    -1.116000000     4.585000000
H     1.578000000    -0.197000000     4.615000000
H     1.890000000    -1.554000000     5.208000000
O    -2.875000000     2.550000000     3.354000000
H    -2.357000000     3.095000000     2.762000000
H    -3.712000000     3.007000000     3.431000000
O     3.034000000    -1.031000000    -2.723000000
H     3.011000000    -1.281000000    -1.799000000
H     3.939000000    -1.189000000    -2.992000000
O     1.964000000     4.469000000     2.626000000
H     1.275000000     4.886000000     2.109000000
H     2.365000000     5.189000000     3.114000000
O     1.951000000    -4.710000000    -3.075000000
H     2.064000000    -4.958000000    -2.157000000
H     1.520000000    -3.856000000    -3.041000000
O     4.571000000    -0.014000000     0.526000000
H     4.234000000     0.528000000     1.240000000
H     3.851000000    -0.609000000     0.317000000
O     0.097000000    -3.203000000     3.646000000
H    -0.650000000    -2.850000000     3.163000000
H     0.512000000    -2.435000000     4.040000000
O     3.300000000     1.697000000    -4.265000000
H     2.634000000     2.362000000    -4.442000000
H     2.864000000     1.069000000    -3.689000000
O    -4.153000000    -0.878000000     3.140000000
H    -4.217000000    -0.663000000     4.071000000
H    -3.267000000    -1.226000000     3.036000000
O     1.373000000    -1.770000000    -5.072000000
H     1.932000000    -1.229000000    -4.514000000
H     0.559000000    -1.863000000    -4.576000000
O     2.618000000     5.050000000    -3.867000000
H     2.361000000     4.749000000    -4.738000000
H     2.826000000     5.977000000    -3.985000000
O    -3.935000000    -2.387000000    -1.080000000
H    -4.495000000    -1.698000000    -0.722000000
H    -3.259000000    -2.516000000    -0.414000000
O    -5.371000000    -7.278000000     2.262000000
H    -5.073000000    -7.885000000     1.585000000
H    -4.886000000    -6.471000000     2.092000000
O    -1.135000000     2.210000000     5.564000000
H    -1.747000000     1.998000000     6.268000000
H    -1.678000000     2.240000000     4.776000000
O     3.595000000     1.785000000     2.261000000
H     3.247000000     1.631000000     3.140000000
H     3.399000000     2.705000000     2.084000000
O    -4.653000000    -3.177000000    -3.589000000
H    -4.486000000    -2.508000000    -2.925000000
H    -4.488000000    -4.006000000    -3.140000000
O    -0.556000000    -0.227000000     6.452000000
H    -0.167000000    -0.705000000     5.720000000
H    -0.659000000     0.667000000     6.126000000
O     1.572000000    -4.278000000     0.044000000
H     1.938000000    -4.498000000     0.901000000
H     0.987000000    -5.007000000    -0.161000000
O    -1.154000000     4.522000000    -6.138000000
H    -1.216000000     3.707000000    -6.635000000
H    -1.320000000     4.263000000    -5.232000000
O    -2.961000000    -3.775000000     4.569000000
H    -3.154000000    -2.994000000     5.088000000
H    -2.582000000    -3.436000000     3.758000000
O    -5.431000000    -4.947000000     4.441000000
H    -5.332000000    -5.653000000     3.802000000
H    -4.587000000    -4.496000000     4.433000000
O    -0.737000000    -5.513000000     2.327000000
H    -0.674000000    -5.032000000     3.153000000
H    -0.537000000    -4.861000000     1.655000000
O     6.266000000     2.080000000    -0.010000000
H     6.906000000     1.817000000     0.651000000
H     5.786000000     1.277000000    -0.213000000
O    -2.082000000    -7.749000000     2.898000000
H    -1.499000000    -7.015000000     2.705000000
H    -2.637000000    -7.824000000     2.122000000
O     1.157000000    -5.380000000     5.220000000
H     0.527000000    -4.817000000     4.771000000
H     1.945000000    -4.842000000     5.298000000
O     5.755000000    -0.298000000    -3.539000000
H     5.829000000     0.652000000    -3.446000000
H     6.601000000    -0.571000000    -3.893000000
O     2.473000000    -1.706000000    -0.085000000
H     1.759000000    -1.118000000     0.162000000
H     2.091000000    -2.582000000    -0.032000000
O    -1.810000000     2.629000000     0.895000000
H    -1.111000000     2.143000000     0.458000000
H    -2.587000000     2.467000000     0.360000000
O    -1.826000000    -4.570000000    -1.658000000
H    -1.853000000    -4.042000000    -0.860000000
H    -2.713000000    -4.919000000    -1.745000000
O     5.412000000     4.424000000     2.174000000
H     5.542000000     3.903000000     1.382000000
H     5.277000000     5.317000000     1.855000000
O    -2.735000000    -0.981000000    -4.183000000
H    -3.253000000    -1.451000000    -4.837000000
H    -2.289000000    -1.670000000    -3.691000000
O    -5.650000000     1.246000000     1.654000000
H    -5.096000000     0.581000000     2.063000000
H    -5.625000000     1.985000000     2.262000000
O    -4.392000000    -4.828000000     1.496000000
H    -4.893000000    -4.020000000     1.612000000
H    -3.486000000    -4.536000000     1.399000000
O    -1.069000000    -3.181000000    -3.797000000
H    -1.167000000    -3.749000000    -3.034000000
H    -1.174000000    -3.766000000    -4.547000000
O     0.669000000    -7.086000000     0.504000000
H     0.234000000    -7.938000000     0.495000000
H     0.222000000    -6.595000000     1.193000000
O     4.439000000    -2.657000000     3.471000000
H     5.208000000    -2.986000000     3.007000000
H     3.869000000    -2.317000000     2.781000000
O    -0.255000000     4.890000000     0.232000000
H    -0.749000000     4.123000000     0.523000000
H    -0.864000000     5.621000000     0.340000000
O     1.213000000     3.417000000     5.531000000
H     1.388000000     3.386000000     4.591000000
H     0.488000000     2.806000000     5.661000000
O     2.575000000     1.235000000     4.766000000
H     2.160000000     2.014000000     5.137000000
H     3.445000000     1.214000000     5.165000000
O    -2.373000000     3.802000000    -3.834000000
H    -1.561000000     4.028000000    -3.379000000
H    -2.676000000     3.004000000    -3.400000000
O    -1.481000000     1.539000000    -5.959000000
H    -0.718000000     1.120000000    -5.562000000
H    -2.199000000     1.356000000    -5.352000000
