161
-3045.11069
C    -1.207000000    -0.766000000     0.651000000
H    -1.963000000    -1.255000000     1.260000000
C     0.179000000    -0.889000000     0.934000000
H     0.536000000    -1.543000000     1.726000000
C     1.151000000    -0.129000000     0.366000000
C     2.655000000    -0.280000000     0.731000000
H     3.154000000    -0.531000000    -0.208000000
H     3.109000000     0.662000000     1.043000000
H     2.870000000    -1.084000000     1.438000000
C     0.811000000     0.739000000    -0.672000000
H     1.605000000     1.288000000    -1.171000000
C    -0.546000000     0.811000000    -1.080000000
H    -0.723000000     1.501000000    -1.902000000
C    -1.574000000     0.093000000    -0.411000000
C    -2.968000000     0.392000000    -0.777000000
O    -3.251000000     1.375000000    -1.482000000
O    -3.838000000    -0.389000000    -0.449000000
O     5.553000000     1.392000000     0.357000000
H     6.494000000     1.546000000     0.441000000
H     5.354000000     0.746000000     1.035000000
O    -1.908000000     3.531000000    -1.244000000
H    -2.063000000     4.286000000    -1.811000000
H    -2.399000000     2.818000000    -1.653000000
O    -4.404000000    -0.461000000    -3.633000000
H    -4.046000000     0.083000000    -2.931000000
H    -3.837000000    -0.285000000    -4.384000000
O     5.064000000    -2.619000000     4.107000000
H     5.060000000    -2.494000000     3.158000000
H     5.673000000    -3.343000000     4.251000000
O     3.363000000    -3.096000000     6.080000000
H     3.224000000    -4.034000000     6.214000000
H     3.977000000    -3.048000000     5.347000000
O    -3.766000000     0.024000000     4.045000000
H    -2.813000000     0.031000000     3.955000000
H    -3.997000000    -0.904000000     4.072000000
O     0.419000000     4.010000000     0.164000000
H    -0.403000000     3.758000000    -0.257000000
H     1.098000000     3.726000000    -0.448000000
O     5.624000000     3.933000000    -2.992000000
H     5.999000000     3.097000000    -3.268000000
H     5.157000000     3.730000000    -2.181000000
O     6.245000000     1.409000000    -2.933000000
H     6.637000000     1.162000000    -2.096000000
H     5.395000000     0.969000000    -2.939000000
O     1.414000000     1.880000000     3.716000000
H     1.688000000     2.541000000     4.352000000
H     1.760000000     1.057000000     4.063000000
O     2.553000000    -4.597000000     2.528000000
H     3.436000000    -4.603000000     2.158000000
H     2.612000000    -5.162000000     3.298000000
O    -5.715000000    -4.824000000    -0.167000000
H    -5.195000000    -4.232000000    -0.710000000
H    -6.089000000    -4.260000000     0.511000000
O    -5.997000000     4.503000000    -2.987000000
H    -6.011000000     5.415000000    -3.277000000
H    -5.622000000     4.538000000    -2.106000000
O    -2.843000000     3.067000000     1.372000000
H    -2.689000000     3.164000000     0.432000000
H    -2.020000000     2.717000000     1.715000000
O    -1.361000000    -4.380000000     0.037000000
H    -2.170000000    -4.653000000     0.470000000
H    -1.653000000    -3.955000000    -0.769000000
O     4.038000000    -3.152000000    -0.013000000
H     3.120000000    -3.138000000    -0.282000000
H     4.465000000    -3.728000000    -0.647000000
O     3.625000000     3.359000000    -0.328000000
H     3.345000000     3.793000000     0.478000000
H     4.135000000     2.606000000    -0.030000000
O    -1.705000000    -0.089000000    -5.698000000
H    -1.864000000     0.709000000    -6.203000000
H    -0.753000000    -0.189000000    -5.702000000
O    -1.274000000    -3.175000000     4.795000000
H    -0.834000000    -3.224000000     3.946000000
H    -0.592000000    -3.394000000     5.430000000
O    -0.309000000    -6.655000000     3.145000000
H    -0.263000000    -5.742000000     2.861000000
H     0.188000000    -6.677000000     3.963000000
O    -9.021000000     0.799000000    -0.741000000
H    -8.088000000     0.760000000    -0.529000000
H    -9.047000000     0.852000000    -1.696000000
O    -4.944000000    -2.564000000    -1.691000000
H    -4.669000000    -2.058000000    -0.926000000
H    -5.042000000    -1.914000000    -2.386000000
O     5.741000000    -0.187000000     5.383000000
H     6.048000000     0.579000000     4.897000000
H     5.469000000    -0.806000000     4.706000000
O     2.459000000     4.359000000     1.938000000
H     1.822000000     3.812000000     1.479000000
H     1.949000000     5.104000000     2.258000000
O     3.711000000     0.701000000    -3.170000000
H     3.360000000    -0.190000000    -3.171000000
H     3.169000000     1.172000000    -3.802000000
O    -3.879000000    -2.712000000     4.624000000
H    -2.977000000    -2.914000000     4.871000000
H    -4.389000000    -3.451000000     4.954000000
O     1.549000000     2.940000000    -4.034000000
H     0.981000000     3.706000000    -3.951000000
H     2.211000000     3.058000000    -3.353000000
O    -6.213000000     0.853000000    -0.574000000
H    -5.319000000     0.568000000    -0.766000000
H    -6.106000000     1.705000000    -0.151000000
O     5.996000000    -2.285000000     1.612000000
H     5.310000000    -2.511000000     0.984000000
H     6.590000000    -1.715000000     1.124000000
O     1.872000000    -0.916000000     4.697000000
H     2.169000000    -1.516000000     5.381000000
H     1.908000000    -1.433000000     3.892000000
O    -2.103000000    -3.181000000    -2.250000000
H    -2.089000000    -3.036000000    -3.196000000
H    -2.809000000    -2.619000000    -1.932000000
O    -5.391000000    -2.132000000     1.021000000
H    -4.683000000    -2.404000000     1.605000000
H    -5.054000000    -1.352000000     0.582000000
O    -4.022000000     2.771000000     3.855000000
H    -3.831000000     1.843000000     3.989000000
H    -3.486000000     3.020000000     3.102000000
O     2.585000000    -1.773000000    -3.838000000
H     3.362000000    -2.324000000    -3.934000000
H     2.219000000    -2.020000000    -2.989000000
O    -3.475000000     2.507000000    -6.549000000
H    -4.218000000     2.040000000    -6.930000000
H    -3.656000000     2.519000000    -5.609000000
O     0.885000000     5.410000000    -3.604000000
H     0.894000000     6.114000000    -4.253000000
H     0.176000000     5.646000000    -3.005000000
O    -0.640000000     1.757000000     2.067000000
H     0.143000000     1.685000000     2.613000000
H    -0.594000000     1.002000000     1.480000000
O    -7.938000000    -2.203000000    -0.354000000
H    -7.053000000    -2.480000000    -0.591000000
H    -7.866000000    -1.258000000    -0.221000000
O    -0.125000000    -3.754000000     2.445000000
H     0.773000000    -4.054000000     2.306000000
H    -0.556000000    -3.888000000     1.601000000
O    -4.395000000     2.548000000    -3.810000000
H    -5.091000000     3.184000000    -3.645000000
H    -4.040000000     2.352000000    -2.943000000
O     6.384000000     1.689000000     3.469000000
H     7.084000000     1.731000000     2.817000000
H     5.981000000     2.557000000     3.444000000
O    -1.035000000    -0.315000000     4.959000000
H    -0.085000000    -0.417000000     5.008000000
H    -1.373000000    -1.210000000     4.969000000
O     1.297000000     1.989000000    -6.698000000
H     1.388000000     1.043000000    -6.582000000
H     1.430000000     2.352000000    -5.822000000
O    -5.929000000     3.125000000     1.040000000
H    -6.278000000     3.947000000     1.383000000
H    -5.003000000     3.138000000     1.282000000
O    -3.356000000    -4.227000000     1.988000000
H    -4.196000000    -4.362000000     2.427000000
H    -2.802000000    -3.819000000     2.653000000
O     5.015000000     4.017000000     3.416000000
H     5.407000000     4.805000000     3.039000000
H     4.129000000     3.994000000     3.055000000
O    -6.763000000     0.682000000     2.432000000
H    -6.057000000     0.500000000     3.052000000
H    -6.414000000     1.371000000     1.866000000
O     1.324000000    -2.747000000    -1.370000000
H     0.709000000    -3.275000000    -1.879000000
H     0.772000000    -2.117000000    -0.907000000
