161
-3031.23424
C    -1.329000000     0.212000000     0.736000000
H    -2.306000000     0.246000000     1.213000000
C    -1.098000000     0.323000000    -0.645000000
H    -1.898000000     0.575000000    -1.336000000
C     0.175000000     0.172000000    -1.251000000
C     0.356000000     0.242000000    -2.731000000
H    -0.523000000     0.667000000    -3.219000000
H     1.153000000     0.930000000    -3.022000000
H     0.650000000    -0.735000000    -3.121000000
C     1.185000000    -0.270000000    -0.418000000
H     2.147000000    -0.558000000    -0.834000000
C     1.021000000    -0.302000000     0.978000000
H     1.864000000    -0.575000000     1.608000000
C    -0.233000000    -0.015000000     1.565000000
C    -0.363000000    -0.247000000     3.063000000
O     0.552000000    -0.671000000     3.714000000
O    -1.356000000    -0.001000000     3.692000000
O    -3.579000000     2.415000000    -4.158000000
H    -3.796000000     2.781000000    -3.301000000
H    -4.256000000     1.758000000    -4.316000000
O     0.470000000     4.759000000    -2.668000000
H     0.745000000     4.200000000    -1.941000000
H     0.114000000     5.541000000    -2.247000000
O     2.042000000    -5.378000000    -4.365000000
H     1.667000000    -4.672000000    -4.891000000
H     2.988000000    -5.242000000    -4.421000000
O     1.444000000     5.482000000    -5.596000000
H     1.847000000     6.266000000    -5.223000000
H     0.904000000     5.130000000    -4.888000000
O     4.252000000    -0.460000000     5.123000000
H     3.726000000    -1.245000000     4.975000000
H     3.641000000     0.266000000     4.996000000
O    -3.770000000    -0.845000000     4.394000000
H    -4.156000000    -0.479000000     5.189000000
H    -2.927000000    -0.399000000     4.309000000
O    -4.076000000    -3.680000000     5.680000000
H    -4.974000000    -3.988000000     5.799000000
H    -4.170000000    -2.776000000     5.378000000
O    -5.304000000     1.614000000     0.422000000
H    -5.759000000     0.797000000     0.628000000
H    -5.416000000     2.154000000     1.205000000
O    -3.308000000    -2.143000000     1.941000000
H    -3.424000000    -1.633000000     2.742000000
H    -2.983000000    -2.991000000     2.241000000
O     1.717000000    -4.839000000     2.750000000
H     2.357000000    -5.373000000     3.221000000
H     2.025000000    -4.841000000     1.843000000
O     5.941000000     0.568000000    -4.891000000
H     5.536000000     1.183000000    -4.280000000
H     5.784000000    -0.293000000    -4.504000000
O    -2.448000000     0.622000000     8.353000000
H    -2.323000000    -0.147000000     8.909000000
H    -1.841000000     0.492000000     7.625000000
O     4.148000000    -0.895000000     7.691000000
H     3.213000000    -1.085000000     7.610000000
H     4.438000000    -0.734000000     6.793000000
O     3.648000000    -1.398000000    -2.868000000
H     3.616000000    -1.504000000    -3.819000000
H     3.444000000    -0.474000000    -2.723000000
O    -1.377000000    -5.314000000    -4.599000000
H    -0.991000000    -5.831000000    -3.893000000
H    -0.680000000    -4.715000000    -4.866000000
O    -1.134000000     3.500000000     7.228000000
H    -0.521000000     3.497000000     7.963000000
H    -0.594000000     3.290000000     6.465000000
O     2.757000000     2.836000000     1.697000000
H     3.026000000     3.745000000     1.829000000
H     3.419000000     2.473000000     1.108000000
O    -3.422000000    -2.630000000    -0.871000000
H    -3.677000000    -2.301000000    -0.010000000
H    -2.600000000    -3.096000000    -0.716000000
O     3.123000000    -0.950000000    -5.837000000
H     3.303000000    -0.015000000    -5.939000000
H     2.287000000    -1.083000000    -6.284000000
O    -1.631000000     4.216000000    -0.292000000
H    -0.794000000     3.780000000    -0.449000000
H    -1.438000000     5.148000000    -0.390000000
O     2.106000000     1.375000000     7.438000000
H     1.294000000     1.049000000     7.048000000
H     1.861000000     1.625000000     8.329000000
O    -4.038000000     3.127000000    -1.469000000
H    -3.275000000     3.579000000    -1.108000000
H    -4.458000000     2.722000000    -0.710000000
O     4.090000000     1.421000000    -2.872000000
H     4.338000000     2.220000000    -2.406000000
H     3.299000000     1.662000000    -3.355000000
O     2.495000000     1.450000000     4.052000000
H     1.941000000     0.670000000     4.047000000
H     2.485000000     1.756000000     3.145000000
O    -0.405000000     0.213000000     6.488000000
H    -0.245000000     0.306000000     5.549000000
H    -0.471000000    -0.731000000     6.628000000
O    -0.377000000    -3.565000000     0.942000000
H    -0.444000000    -2.635000000     1.159000000
H    -0.113000000    -3.983000000     1.762000000
O    -0.910000000    -2.466000000     5.519000000
H    -0.646000000    -1.696000000     5.017000000
H    -1.802000000    -2.650000000     5.224000000
O    -3.975000000    -1.078000000    -3.340000000
H    -3.776000000    -1.263000000    -2.422000000
H    -3.449000000    -1.710000000    -3.830000000
O     2.016000000    -4.986000000     0.086000000
H     2.485000000    -5.289000000    -0.691000000
H     1.245000000    -4.535000000    -0.259000000
O     2.180000000    -2.512000000     4.552000000
H     1.806000000    -3.269000000     4.100000000
H     1.710000000    -1.761000000     4.190000000
O     5.432000000    -2.525000000    -1.288000000
H     4.647000000    -2.138000000    -1.676000000
H     6.109000000    -2.415000000    -1.957000000
O    -0.061000000    -4.380000000     7.302000000
H     0.078000000    -3.987000000     8.164000000
H    -0.049000000    -3.639000000     6.697000000
O     0.152000000     2.728000000     4.622000000
H     1.087000000     2.528000000     4.654000000
H    -0.134000000     2.400000000     3.770000000
O    -0.241000000     2.672000000    -6.791000000
H    -0.519000000     3.189000000    -6.035000000
H    -1.022000000     2.179000000    -7.044000000
O    -5.838000000     2.323000000     4.292000000
H    -6.236000000     1.707000000     3.677000000
H    -4.897000000     2.163000000     4.216000000
O     2.431000000     2.099000000    -5.056000000
H     3.048000000     2.455000000    -5.695000000
H     1.714000000     2.732000000    -5.036000000
O    -1.294000000     3.833000000    -4.674000000
H    -0.955000000     4.179000000    -3.848000000
H    -2.110000000     3.394000000    -4.432000000
O    -2.022000000    -2.467000000    -5.103000000
H    -2.541000000    -3.260000000    -4.969000000
H    -1.183000000    -2.784000000    -5.440000000
O    -4.645000000     0.192000000     6.653000000
H    -3.997000000     0.203000000     7.358000000
H    -5.314000000    -0.423000000     6.952000000
O    -3.097000000     2.040000000     4.674000000
H    -2.897000000     2.058000000     5.610000000
H    -2.336000000     1.619000000     4.275000000
O     0.402000000    -3.726000000    -5.999000000
H     0.059000000    -4.481000000    -6.478000000
H     0.914000000    -3.243000000    -6.648000000
O     6.587000000     1.198000000     2.355000000
H     5.827000000     1.721000000     2.101000000
H     6.813000000     0.704000000     1.566000000
O    -5.826000000     0.562000000    -4.208000000
H    -6.121000000     0.013000000    -4.935000000
H    -5.241000000    -0.002000000    -3.703000000
O    -2.335000000     4.554000000     3.381000000
H    -2.572000000     4.478000000     2.457000000
H    -2.725000000     3.782000000     3.793000000
O     0.767000000     3.109000000    -0.592000000
H     1.416000000     3.185000000     0.108000000
H     0.538000000     2.180000000    -0.607000000
O     4.867000000     2.186000000     0.063000000
H     5.385000000     1.382000000     0.073000000
H     5.275000000     2.727000000    -0.613000000
O     5.055000000    -4.071000000     1.009000000
H     4.188000000    -4.342000000     0.705000000
H     5.305000000    -3.360000000     0.419000000
O    -2.729000000     1.742000000    -6.966000000
H    -2.897000000     1.952000000    -6.047000000
H    -2.820000000     0.791000000    -7.015000000
