161
-3050.97726
C    -1.277000000    -0.748000000    -0.308000000
H    -2.148000000    -1.316000000    -0.628000000
C    -0.358000000    -0.297000000    -1.245000000
H    -0.597000000    -0.435000000    -2.297000000
C     0.810000000     0.375000000    -0.883000000
C     1.904000000     0.842000000    -1.837000000
H     1.936000000     1.933000000    -1.804000000
H     2.852000000     0.464000000    -1.449000000
H     1.671000000     0.386000000    -2.802000000
C     1.064000000     0.491000000     0.465000000
H     1.953000000     0.966000000     0.870000000
C     0.124000000     0.180000000     1.403000000
H     0.370000000     0.329000000     2.451000000
C    -1.072000000    -0.380000000     1.046000000
C    -2.099000000    -0.845000000     2.071000000
O    -1.984000000    -0.557000000     3.276000000
O    -3.145000000    -1.386000000     1.675000000
O    -0.067000000    -4.211000000     5.931000000
H    -0.281000000    -4.478000000     6.825000000
H    -0.302000000    -3.284000000     5.894000000
O    -2.154000000    -3.568000000     7.643000000
H    -3.053000000    -3.858000000     7.798000000
H    -2.145000000    -3.295000000     6.726000000
O     2.365000000     4.486000000    -2.441000000
H     2.936000000     5.022000000    -2.991000000
H     1.594000000     4.322000000    -2.985000000
O     0.670000000     4.447000000    -0.265000000
H     1.200000000     4.196000000    -1.021000000
H     0.443000000     5.363000000    -0.426000000
O     2.688000000    -1.951000000     1.996000000
H     1.797000000    -2.181000000     2.259000000
H     2.927000000    -2.615000000     1.349000000
O    -4.648000000    -0.229000000    -4.156000000
H    -4.417000000    -0.976000000    -3.604000000
H    -4.215000000     0.517000000    -3.742000000
O    -6.525000000    -0.755000000     4.292000000
H    -7.439000000    -0.969000000     4.108000000
H    -6.024000000    -1.424000000     3.825000000
O    -0.433000000    -4.384000000    -4.053000000
H    -0.188000000    -4.221000000    -3.142000000
H    -0.938000000    -5.196000000    -4.024000000
O     4.271000000     2.418000000     2.713000000
H     5.044000000     2.495000000     2.153000000
H     4.249000000     3.240000000     3.204000000
O     0.283000000    -2.947000000     3.063000000
H    -0.462000000    -3.369000000     2.636000000
H    -0.110000000    -2.378000000     3.725000000
O     6.418000000     2.522000000     1.344000000
H     7.222000000     3.005000000     1.155000000
H     6.030000000     2.358000000     0.484000000
O     5.621000000     4.911000000    -0.596000000
H     4.701000000     4.892000000    -0.331000000
H     6.046000000     5.472000000     0.053000000
O    -1.135000000     0.920000000     7.363000000
H    -0.221000000     0.651000000     7.463000000
H    -1.157000000     1.387000000     6.528000000
O     2.678000000    -2.517000000     4.990000000
H     2.930000000    -3.067000000     4.248000000
H     2.003000000    -1.936000000     4.640000000
O     3.137000000     6.154000000     0.402000000
H     3.397000000     6.675000000    -0.358000000
H     2.308000000     5.752000000     0.143000000
O     6.845000000     1.143000000    -3.251000000
H     6.934000000     1.717000000    -4.012000000
H     6.259000000     1.618000000    -2.661000000
O    -3.153000000    -4.081000000     0.811000000
H    -3.054000000    -3.178000000     1.110000000
H    -4.072000000    -4.291000000     0.981000000
O    -0.250000000     2.635000000     5.526000000
H    -0.259000000     3.589000000     5.600000000
H     0.629000000     2.381000000     5.810000000
O     0.437000000    -1.076000000    -6.632000000
H     0.478000000    -0.120000000    -6.637000000
H    -0.449000000    -1.277000000    -6.332000000
O    -3.357000000     1.644000000    -2.364000000
H    -2.917000000     2.460000000    -2.123000000
H    -3.608000000     1.251000000    -1.528000000
O    -0.989000000    -5.462000000     2.098000000
H    -0.600000000    -6.114000000     1.514000000
H    -1.843000000    -5.273000000     1.711000000
O    -2.561000000     2.750000000     1.805000000
H    -2.884000000     3.627000000     2.012000000
H    -3.144000000     2.160000000     2.284000000
O     5.237000000     2.031000000    -1.097000000
H     4.324000000     1.833000000    -0.885000000
H     5.271000000     2.986000000    -1.140000000
O    -2.264000000     2.072000000    -4.722000000
H    -2.651000000     2.003000000    -3.849000000
H    -2.754000000     2.776000000    -5.146000000
O     4.605000000    -0.397000000     0.742000000
H     3.845000000    -0.895000000     1.041000000
H     4.764000000     0.239000000     1.440000000
O     3.124000000    -3.455000000    -4.053000000
H     2.503000000    -3.847000000    -3.440000000
H     3.979000000    -3.579000000    -3.641000000
O    -3.206000000    -4.382000000     3.912000000
H    -2.784000000    -4.908000000     4.592000000
H    -3.428000000    -3.560000000     4.349000000
O    -6.881000000     1.159000000     1.437000000
H    -6.982000000     0.972000000     2.371000000
H    -6.033000000     0.779000000     1.208000000
O    -2.949000000     1.597000000     4.734000000
H    -2.082000000     1.980000000     4.868000000
H    -2.774000000     0.737000000     4.350000000
O    -5.258000000    -2.433000000     2.664000000
H    -4.449000000    -2.000000000     2.393000000
H    -5.778000000    -2.491000000     1.862000000
O    -1.824000000    -4.638000000    -1.397000000
H    -0.971000000    -4.214000000    -1.307000000
H    -2.296000000    -4.397000000    -0.600000000
O     0.762000000    -3.426000000    -1.483000000
H     1.558000000    -3.644000000    -0.997000000
H     0.364000000    -2.713000000    -0.983000000
O    -6.196000000    -2.648000000     0.014000000
H    -5.947000000    -2.968000000    -0.853000000
H    -7.136000000    -2.821000000     0.073000000
O     0.350000000    -1.057000000     4.988000000
H     0.817000000    -0.403000000     5.508000000
H    -0.311000000    -0.555000000     4.511000000
O     3.229000000    -3.751000000     0.018000000
H     4.110000000    -3.479000000    -0.238000000
H     3.213000000    -4.694000000    -0.144000000
O     2.008000000     1.668000000     4.048000000
H     1.312000000     2.251000000     3.746000000
H     2.738000000     1.838000000     3.452000000
O     0.270000000     1.581000000    -5.562000000
H     0.266000000     2.319000000    -6.171000000
H    -0.597000000     1.600000000    -5.157000000
O    -5.560000000     1.551000000     5.685000000
H    -4.635000000     1.582000000     5.439000000
H    -5.904000000     0.787000000     5.222000000
O     3.129000000    -0.264000000    -6.899000000
H     3.037000000     0.580000000    -7.343000000
H     2.476000000    -0.238000000    -6.200000000
O     0.046000000     4.120000000    -3.797000000
H    -0.420000000     4.601000000    -4.481000000
H     0.066000000     3.216000000    -4.111000000
O    -2.679000000    -3.380000000    -5.151000000
H    -1.784000000    -3.338000000    -4.816000000
H    -2.774000000    -4.278000000    -5.471000000
O    -3.200000000    -1.754000000     5.202000000
H    -4.111000000    -1.568000000     4.976000000
H    -2.688000000    -1.276000000     4.550000000
O    -3.651000000    -2.489000000    -2.633000000
H    -3.624000000    -2.834000000    -3.525000000
H    -3.351000000    -3.215000000    -2.085000000
O    -4.743000000     0.003000000     0.252000000
H    -4.046000000    -0.327000000     0.818000000
H    -4.939000000    -0.726000000    -0.337000000
O    -2.158000000    -0.834000000    -5.827000000
H    -2.625000000    -0.409000000    -5.108000000
H    -2.424000000    -1.752000000    -5.775000000
O     7.005000000    -0.515000000    -0.675000000
H     6.133000000    -0.308000000    -0.338000000
H     7.116000000     0.067000000    -1.426000000
O     0.215000000     3.232000000     2.306000000
H     0.499000000     3.596000000     1.468000000
H    -0.628000000     2.821000000     2.116000000
O    -1.980000000     3.494000000    -0.818000000
H    -1.044000000     3.455000000    -0.621000000
H    -2.406000000     3.178000000    -0.021000000
