161
-3053.62481
C    -1.085000000     0.225000000     0.969000000
H    -2.025000000     0.228000000     1.515000000
C    -1.168000000     0.204000000    -0.449000000
H    -2.118000000     0.241000000    -0.977000000
C    -0.051000000     0.006000000    -1.277000000
C    -0.163000000     0.124000000    -2.751000000
H    -0.778000000    -0.737000000    -3.020000000
H    -0.746000000     1.030000000    -2.930000000
H     0.741000000     0.097000000    -3.364000000
C     1.153000000    -0.210000000    -0.644000000
H     2.065000000    -0.329000000    -1.224000000
C     1.274000000    -0.207000000     0.800000000
H     2.189000000    -0.262000000     1.384000000
C     0.133000000     0.037000000     1.607000000
C     0.158000000    -0.083000000     3.094000000
O     1.271000000    -0.139000000     3.610000000
O    -0.849000000    -0.224000000     3.663000000
O    -4.154000000     0.927000000    -3.214000000
H    -3.606000000     1.259000000    -2.503000000
H    -4.689000000     0.246000000    -2.806000000
O     1.708000000     2.870000000    -5.998000000
H     0.752000000     2.845000000    -5.955000000
H     1.963000000     3.480000000    -5.305000000
O     5.735000000    -1.822000000     2.579000000
H     5.411000000    -1.640000000     1.696000000
H     4.944000000    -1.899000000     3.113000000
O    -3.664000000    -0.554000000     4.060000000
H    -3.715000000    -0.242000000     4.964000000
H    -2.727000000    -0.582000000     3.868000000
O    -4.452000000    -1.885000000    -5.701000000
H    -4.556000000    -1.854000000    -4.750000000
H    -5.347000000    -1.877000000    -6.040000000
O    -4.755000000     1.278000000     0.880000000
H    -4.840000000     1.799000000     1.679000000
H    -4.612000000     0.384000000     1.192000000
O     1.222000000    -4.531000000    -2.043000000
H     1.009000000    -4.139000000    -1.197000000
H     2.173000000    -4.640000000    -2.025000000
O     4.178000000     2.813000000     5.610000000
H     4.506000000     2.199000000     4.953000000
H     4.946000000     3.326000000     5.863000000
O     4.467000000     1.800000000    -5.551000000
H     3.919000000     1.074000000    -5.253000000
H     4.188000000     2.545000000    -5.018000000
O    -1.149000000     0.479000000     8.047000000
H    -0.759000000     0.959000000     8.778000000
H    -0.405000000     0.230000000     7.500000000
O     3.291000000    -1.542000000     7.487000000
H     2.793000000    -0.845000000     7.061000000
H     2.744000000    -1.812000000     8.224000000
O     4.751000000    -2.758000000     5.541000000
H     4.079000000    -2.554000000     6.192000000
H     4.344000000    -2.546000000     4.702000000
O    -1.350000000     3.168000000     6.828000000
H    -1.760000000     2.381000000     6.469000000
H    -0.411000000     3.018000000     6.724000000
O     3.225000000     3.010000000     1.000000000
H     3.605000000     3.856000000     1.235000000
H     3.622000000     2.795000000     0.156000000
O    -5.469000000    -2.303000000     0.971000000
H    -5.447000000    -1.798000000     1.784000000
H    -6.072000000    -3.024000000     1.153000000
O    -4.772000000     2.846000000     3.877000000
H    -4.666000000     3.606000000     4.449000000
H    -5.711000000     2.662000000     3.896000000
O     3.091000000    -2.368000000    -4.806000000
H     2.851000000    -1.443000000    -4.851000000
H     2.263000000    -2.824000000    -4.655000000
O    -2.234000000     4.832000000     2.206000000
H    -1.623000000     4.500000000     1.548000000
H    -2.435000000     4.072000000     2.751000000
O    -4.452000000     3.489000000    -4.372000000
H    -4.637000000     2.641000000    -3.967000000
H    -5.093000000     3.560000000    -5.080000000
O    -4.124000000     3.489000000    -1.152000000
H    -4.950000000     3.707000000    -1.585000000
H    -4.383000000     2.964000000    -0.394000000
O     4.330000000     2.762000000    -1.621000000
H     4.110000000     3.297000000    -2.383000000
H     4.996000000     3.268000000    -1.156000000
O    -1.881000000     4.550000000    -3.675000000
H    -1.930000000     4.603000000    -2.721000000
H    -2.664000000     4.060000000    -3.928000000
O     3.460000000     1.114000000     3.153000000
H     2.748000000     0.540000000     3.437000000
H     3.046000000     1.724000000     2.543000000
O     0.287000000    -5.073000000     4.416000000
H    -0.289000000    -5.746000000     4.777000000
H    -0.247000000    -4.278000000     4.408000000
O     1.161000000    -0.061000000     6.226000000
H     1.280000000     0.865000000     6.436000000
H     1.111000000    -0.085000000     5.270000000
O     0.116000000    -3.821000000     1.849000000
H     1.008000000    -3.763000000     1.505000000
H     0.167000000    -4.488000000     2.534000000
O    -1.313000000    -2.697000000     4.746000000
H    -1.064000000    -1.834000000     4.413000000
H    -2.257000000    -2.748000000     4.595000000
O    -2.221000000    -3.526000000     0.138000000
H    -1.994000000    -2.665000000    -0.213000000
H    -1.654000000    -3.630000000     0.903000000
O     2.643000000    -3.048000000     0.160000000
H     2.433000000    -2.114000000     0.135000000
H     3.591000000    -3.083000000     0.030000000
O     3.299000000    -2.139000000     3.385000000
H     2.875000000    -2.981000000     3.220000000
H     2.574000000    -1.531000000     3.534000000
O     5.214000000    -2.467000000    -0.465000000
H     5.333000000    -2.458000000    -1.414000000
H     5.537000000    -1.613000000    -0.175000000
O    -0.066000000    -2.322000000     7.111000000
H     0.424000000    -1.504000000     7.021000000
H    -0.697000000    -2.303000000     6.391000000
O     1.219000000     2.700000000     5.811000000
H     1.038000000     3.209000000     5.021000000
H     2.173000000     2.700000000     5.882000000
O    -0.856000000     1.981000000    -5.858000000
H    -1.504000000     1.376000000    -6.218000000
H    -1.313000000     2.424000000    -5.142000000
O     1.969000000     0.182000000    -5.803000000
H     2.066000000     1.132000000    -5.854000000
H     1.023000000     0.038000000    -5.786000000
O     5.710000000    -0.026000000    -1.942000000
H     6.664000000     0.046000000    -1.970000000
H     5.398000000     0.755000000    -2.399000000
O     0.808000000     5.004000000    -3.984000000
H     0.781000000     4.796000000    -3.050000000
H    -0.077000000     4.813000000    -4.297000000
O     0.497000000    -3.492000000    -4.616000000
H     0.564000000    -3.724000000    -3.690000000
H     0.271000000    -4.314000000    -5.052000000
O    -3.652000000     0.325000000     6.610000000
H    -2.787000000     0.458000000     6.997000000
H    -3.991000000    -0.457000000     7.044000000
O    -2.954000000    -2.864000000    -2.802000000
H    -2.532000000    -3.297000000    -2.060000000
H    -3.778000000    -3.337000000    -2.918000000
O    -1.690000000     2.287000000     3.822000000
H    -1.425000000     1.368000000     3.791000000
H    -2.645000000     2.258000000     3.883000000
O    -0.771000000    -1.206000000    -5.760000000
H    -1.585000000    -1.332000000    -5.271000000
H    -0.277000000    -2.013000000    -5.614000000
O     6.349000000     1.187000000     3.514000000
H     5.423000000     1.196000000     3.268000000
H     6.796000000     0.830000000     2.746000000
O    -5.452000000    -1.124000000    -1.948000000
H    -5.329000000    -2.063000000    -2.092000000
H    -5.305000000    -1.005000000    -1.010000000
O     0.529000000     3.766000000     3.354000000
H     0.885000000     3.708000000     2.468000000
H    -0.299000000     3.288000000     3.312000000
O    -0.571000000     3.525000000     0.391000000
H     0.305000000     3.821000000     0.145000000
H    -0.815000000     2.903000000    -0.294000000
O     5.113000000     0.542000000     0.578000000
H     4.566000000     1.321000000     0.672000000
H     5.107000000     0.357000000    -0.361000000
O    -3.341000000     0.684000000    -6.208000000
H    -3.645000000     0.850000000    -5.316000000
H    -3.605000000    -0.219000000    -6.387000000
