161
-3023.21611
C     1.352000000    -0.096000000     0.668000000
H     2.343000000    -0.039000000     1.110000000
C     1.167000000    -0.153000000    -0.699000000
H     2.038000000    -0.153000000    -1.350000000
C    -0.118000000     0.025000000    -1.239000000
C    -0.379000000     0.020000000    -2.752000000
H    -1.217000000     0.707000000    -2.887000000
H     0.572000000     0.208000000    -3.254000000
H    -0.666000000    -1.008000000    -2.980000000
C    -1.198000000     0.011000000    -0.359000000
H    -2.158000000     0.045000000    -0.868000000
C    -1.025000000    -0.021000000     0.974000000
H    -1.898000000    -0.040000000     1.621000000
C     0.252000000    -0.081000000     1.556000000
C     0.322000000     0.198000000     3.074000000
O    -0.767000000     0.253000000     3.723000000
O     1.373000000     0.118000000     3.667000000
O    -3.142000000     3.968000000     0.708000000
H    -3.326000000     3.306000000     1.374000000
H    -2.331000000     3.673000000     0.294000000
O     3.355000000     0.001000000    -7.273000000
H     2.564000000     0.532000000    -7.371000000
H     3.275000000    -0.389000000    -6.403000000
O    -4.314000000    -2.136000000     2.207000000
H    -3.735000000    -1.906000000     2.934000000
H    -5.095000000    -1.599000000     2.344000000
O    -5.127000000     0.835000000    -0.879000000
H    -5.679000000     0.343000000    -1.486000000
H    -4.678000000     1.476000000    -1.429000000
O     4.890000000    -2.106000000     5.952000000
H     5.151000000    -1.928000000     5.048000000
H     3.982000000    -1.806000000     6.002000000
O     0.981000000    -3.479000000     2.224000000
H     1.017000000    -3.013000000     1.388000000
H     1.898000000    -3.584000000     2.479000000
O    -1.635000000    -3.310000000    -0.158000000
H    -0.704000000    -3.367000000    -0.372000000
H    -1.678000000    -2.673000000     0.555000000
O    -0.651000000     2.952000000    -0.100000000
H    -0.318000000     2.061000000     0.004000000
H    -0.144000000     3.315000000    -0.826000000
O     3.642000000     1.295000000     3.252000000
H     2.791000000     0.914000000     3.469000000
H     3.569000000     1.534000000     2.328000000
O    -2.551000000    -1.168000000    -7.432000000
H    -1.853000000    -1.020000000    -8.070000000
H    -2.213000000    -1.859000000    -6.863000000
O     4.928000000    -1.607000000     3.207000000
H     4.306000000    -0.880000000     3.190000000
H     4.379000000    -2.390000000     3.257000000
O     3.148000000    -4.464000000    -1.583000000
H     3.261000000    -5.409000000    -1.682000000
H     2.800000000    -4.174000000    -2.426000000
O     0.860000000     2.006000000    -4.783000000
H     0.380000000     1.252000000    -5.127000000
H     0.179000000     2.608000000    -4.485000000
O    -2.004000000     2.637000000     6.306000000
H    -2.533000000     3.236000000     5.779000000
H    -1.686000000     1.986000000     5.681000000
O    -0.775000000    -0.354000000     6.317000000
H    -0.674000000    -0.370000000     5.365000000
H    -0.161000000     0.319000000     6.611000000
O     4.952000000    -2.561000000    -0.729000000
H     4.891000000    -2.065000000    -1.545000000
H     4.629000000    -3.433000000    -0.954000000
O    -3.734000000    -3.247000000     6.066000000
H    -4.221000000    -2.647000000     6.632000000
H    -3.595000000    -2.754000000     5.258000000
O    -3.110000000     4.180000000     3.987000000
H    -3.111000000     3.356000000     3.499000000
H    -4.031000000     4.440000000     4.019000000
O    -5.578000000     0.437000000     2.422000000
H    -6.288000000     0.490000000     1.782000000
H    -6.021000000     0.330000000     3.263000000
O     2.440000000    -1.640000000     5.792000000
H     2.021000000    -1.148000000     5.086000000
H     2.093000000    -2.528000000     5.705000000
O    -4.562000000    -0.081000000    -5.266000000
H    -4.250000000    -0.292000000    -6.145000000
H    -5.506000000    -0.240000000    -5.302000000
O     5.782000000     0.892000000     5.241000000
H     5.113000000     0.908000000     4.557000000
H     5.288000000     0.808000000     6.057000000
O     1.104000000     3.084000000     4.858000000
H     1.391000000     3.734000000     4.216000000
H     0.963000000     2.288000000     4.346000000
O    -4.921000000     3.073000000    -3.073000000
H    -5.634000000     3.555000000    -3.491000000
H    -4.126000000     3.509000000    -3.381000000
O     6.399000000    -0.131000000     0.346000000
H     5.942000000    -0.903000000     0.012000000
H     6.221000000     0.552000000    -0.300000000
O    -4.739000000    -4.321000000    -3.549000000
H    -4.200000000    -3.531000000    -3.578000000
H    -5.530000000    -4.054000000    -3.080000000
O    -3.436000000    -5.190000000    -1.028000000
H    -2.835000000    -4.483000000    -0.793000000
H    -3.838000000    -4.901000000    -1.847000000
O    -6.187000000    -0.430000000    -2.970000000
H    -5.996000000     0.350000000    -3.492000000
H    -7.141000000    -0.435000000    -2.888000000
O     3.582000000     2.257000000    -3.579000000
H     2.746000000     1.813000000    -3.723000000
H     4.074000000     2.109000000    -4.387000000
O     4.638000000    -1.042000000    -2.782000000
H     4.213000000    -1.202000000    -3.625000000
H     5.250000000    -0.326000000    -2.955000000
O     3.384000000    -1.423000000    -5.096000000
H     2.615000000    -1.859000000    -4.727000000
H     4.080000000    -2.078000000    -5.041000000
O    -2.816000000    -1.252000000     4.207000000
H    -1.923000000    -0.968000000     4.014000000
H    -3.111000000    -0.661000000     4.900000000
O     1.122000000    -2.999000000    -0.503000000
H     1.506000000    -2.123000000    -0.452000000
H     1.842000000    -3.560000000    -0.789000000
O    -4.447000000     0.622000000     5.447000000
H    -5.323000000     0.250000000     5.550000000
H    -4.551000000     1.297000000     4.776000000
O    -4.781000000    -1.779000000    -0.461000000
H    -4.939000000    -0.837000000    -0.411000000
H    -4.616000000    -2.043000000     0.444000000
O     5.425000000     2.140000000    -1.379000000
H     4.863000000     2.013000000    -2.143000000
H     5.924000000     2.932000000    -1.578000000
O    -3.559000000    -2.065000000    -3.090000000
H    -3.720000000    -1.277000000    -3.610000000
H    -3.804000000    -1.818000000    -2.199000000
O    -1.164000000    -3.552000000    -3.390000000
H    -1.230000000    -4.297000000    -2.792000000
H    -1.901000000    -2.989000000    -3.152000000
O    -1.048000000    -3.513000000    -6.327000000
H    -0.926000000    -3.093000000    -5.476000000
H    -1.475000000    -4.345000000    -6.124000000
O    -0.405000000    -2.879000000     7.721000000
H    -0.348000000    -2.160000000     7.092000000
H    -1.301000000    -2.834000000     8.056000000
O    -2.622000000     4.187000000    -3.458000000
H    -2.437000000     4.177000000    -2.519000000
H    -2.714000000     5.115000000    -3.674000000
O    -2.829000000     0.217000000     8.404000000
H    -3.000000000     1.106000000     8.091000000
H    -2.217000000    -0.148000000     7.764000000
O    -3.312000000     1.893000000     2.644000000
H    -4.047000000     1.346000000     2.370000000
H    -2.541000000     1.339000000     2.517000000
O     3.639000000     2.150000000     0.856000000
H     4.166000000     2.015000000     0.068000000
H     3.492000000     3.095000000     0.887000000
O     1.014000000     3.658000000    -2.233000000
H     1.009000000     4.567000000    -2.531000000
H     1.596000000     3.208000000    -2.846000000
O     3.811000000     3.929000000     3.708000000
H     3.918000000     2.977000000     3.709000000
H     3.972000000     4.187000000     2.801000000
O     1.358000000     1.402000000     7.002000000
H     1.339000000     2.117000000     6.367000000
H     2.274000000     1.351000000     7.277000000
O     1.873000000    -3.395000000    -3.769000000
H     0.966000000    -3.335000000    -3.470000000
H     1.863000000    -4.089000000    -4.428000000
