161
-3007.71797
C     0.962000000     1.041000000     0.536000000
H     1.464000000     1.867000000     1.033000000
C    -0.155000000     1.214000000    -0.324000000
H    -0.274000000     2.282000000    -0.490000000
C    -0.885000000     0.181000000    -0.899000000
C    -2.065000000     0.517000000    -1.757000000
H    -2.985000000     0.244000000    -1.235000000
H    -2.094000000     1.586000000    -1.976000000
H    -2.008000000    -0.059000000    -2.683000000
C    -0.534000000    -1.092000000    -0.545000000
H    -1.150000000    -1.870000000    -0.988000000
C     0.527000000    -1.328000000     0.371000000
H     0.727000000    -2.349000000     0.685000000
C     1.141000000    -0.301000000     0.984000000
C     2.224000000    -0.562000000     2.111000000
O     2.593000000    -1.684000000     2.250000000
O     2.516000000     0.309000000     2.930000000
O    -4.917000000     1.018000000    -4.060000000
H    -4.484000000     1.782000000    -3.677000000
H    -4.220000000     0.556000000    -4.525000000
O    -4.236000000     3.725000000    -3.548000000
H    -3.330000000     3.664000000    -3.849000000
H    -4.665000000     4.289000000    -4.192000000
O    -2.073000000     5.290000000    -0.705000000
H    -2.207000000     5.266000000    -1.653000000
H    -1.401000000     5.960000000    -0.575000000
O    -1.444000000    -0.252000000     4.316000000
H    -1.696000000    -0.097000000     3.406000000
H    -0.699000000     0.331000000     4.461000000
O    -1.781000000     3.266000000    -4.779000000
H    -1.719000000     3.070000000    -5.714000000
H    -1.048000000     2.792000000    -4.386000000
O     4.841000000    -0.918000000     4.501000000
H     4.612000000    -0.888000000     5.430000000
H     4.009000000    -0.784000000     4.045000000
O     4.231000000    -3.735000000     3.438000000
H     4.422000000    -3.131000000     4.155000000
H     3.785000000    -3.198000000     2.784000000
O     2.126000000     6.315000000    -1.301000000
H     2.449000000     7.191000000    -1.091000000
H     1.176000000     6.380000000    -1.203000000
O     0.256000000    -6.202000000     3.629000000
H     0.519000000    -5.489000000     4.212000000
H    -0.133000000    -5.762000000     2.873000000
O    -4.813000000    -1.296000000    -7.074000000
H    -4.467000000    -2.113000000    -7.433000000
H    -4.110000000    -0.962000000    -6.517000000
O     2.215000000     3.948000000    -2.687000000
H     2.148000000     4.784000000    -2.224000000
H     1.346000000     3.814000000    -3.065000000
O     5.522000000     1.561000000     0.752000000
H     5.610000000     0.609000000     0.798000000
H     5.228000000     1.732000000    -0.142000000
O    -2.855000000    -0.434000000    -5.438000000
H    -2.753000000    -1.131000000    -4.790000000
H    -1.963000000    -0.133000000    -5.609000000
O     0.921000000     1.991000000    -4.430000000
H     1.788000000     2.177000000    -4.790000000
H     0.696000000     1.129000000    -4.781000000
O     5.656000000     3.376000000     4.576000000
H     4.989000000     3.301000000     3.893000000
H     6.184000000     2.583000000     4.483000000
O    -5.682000000    -2.895000000    -3.705000000
H    -5.744000000    -2.539000000    -2.819000000
H    -4.768000000    -2.758000000    -3.956000000
O    -0.297000000    -4.574000000    -0.889000000
H    -0.012000000    -3.932000000    -1.540000000
H    -0.915000000    -5.134000000    -1.360000000
O     4.754000000     2.068000000    -1.709000000
H     3.917000000     1.824000000    -2.103000000
H     5.400000000     1.532000000    -2.169000000
O    -4.599000000    -4.191000000     0.588000000
H    -5.547000000    -4.072000000     0.530000000
H    -4.455000000    -4.546000000     1.465000000
O     4.319000000     4.646000000    -0.804000000
H     4.495000000     3.864000000    -1.328000000
H     3.504000000     4.997000000    -1.163000000
O     4.822000000    -1.224000000     0.813000000
H     4.444000000    -1.654000000     0.045000000
H     4.146000000    -1.302000000     1.487000000
O     2.354000000     0.411000000     5.883000000
H     2.360000000     0.916000000     6.697000000
H     1.774000000     0.902000000     5.301000000
O     3.449000000    -6.112000000     2.304000000
H     2.883000000    -5.947000000     1.550000000
H     3.855000000    -5.265000000     2.490000000
O     6.870000000    -1.995000000     2.778000000
H     6.464000000    -1.699000000     1.964000000
H     6.335000000    -1.604000000     3.469000000
O     3.632000000     2.742000000     2.574000000
H     3.101000000     1.962000000     2.735000000
H     4.280000000     2.462000000     1.928000000
O    -0.193000000    -0.349000000    -5.653000000
H     0.274000000    -1.184000000    -5.666000000
H    -0.121000000    -0.020000000    -6.549000000
O    -5.803000000     1.007000000     0.160000000
H    -6.756000000     0.939000000     0.218000000
H    -5.621000000     1.939000000     0.279000000
O     0.619000000     1.683000000     3.862000000
H     0.464000000     2.320000000     3.165000000
H     1.259000000     1.075000000     3.492000000
O    -1.836000000     5.459000000    -3.265000000
H    -1.366000000     5.046000000    -3.989000000
H    -1.899000000     6.381000000    -3.516000000
O    -5.083000000     5.483000000    -1.443000000
H    -4.644000000     4.886000000    -2.049000000
H    -6.002000000     5.215000000    -1.466000000
O    -3.264000000    -4.104000000    -1.811000000
H    -3.360000000    -4.887000000    -2.353000000
H    -3.703000000    -4.326000000    -0.990000000
O     4.155000000    -2.081000000    -1.915000000
H     3.399000000    -1.494000000    -1.940000000
H     4.652000000    -1.865000000    -2.704000000
O     1.840000000    -0.060000000    -2.294000000
H     1.227000000     0.095000000    -1.575000000
H     1.905000000     0.785000000    -2.739000000
O     2.012000000    -4.710000000     0.224000000
H     2.312000000    -3.884000000    -0.154000000
H     1.161000000    -4.866000000    -0.184000000
O    -2.708000000    -3.238000000     3.120000000
H    -1.993000000    -2.776000000     3.558000000
H    -3.030000000    -2.617000000     2.467000000
O    -3.460000000    -1.158000000     1.420000000
H    -2.901000000    -0.423000000     1.672000000
H    -4.302000000    -0.756000000     1.206000000
O     7.143000000     0.971000000     4.567000000
H     6.343000000     0.528000000     4.284000000
H     7.729000000     0.909000000     3.812000000
O    -3.302000000     3.163000000     0.599000000
H    -2.871000000     3.957000000     0.283000000
H    -3.993000000     2.994000000    -0.042000000
O    -2.176000000    -2.500000000    -3.840000000
H    -2.439000000    -2.959000000    -3.042000000
H    -1.225000000    -2.604000000    -3.874000000
O    -1.464000000    -5.617000000     1.412000000
H    -1.349000000    -4.915000000     0.772000000
H    -2.191000000    -5.323000000     1.961000000
O    -0.178000000     4.433000000     3.351000000
H     0.231000000     5.032000000     2.726000000
H    -1.085000000     4.734000000     3.412000000
O     0.973000000    -2.838000000    -3.186000000
H     1.001000000    -1.920000000    -2.914000000
H     1.698000000    -2.927000000    -3.804000000
O    -6.258000000    -1.831000000    -1.145000000
H    -5.817000000    -2.456000000    -0.570000000
H    -5.951000000    -0.974000000    -0.849000000
O    -2.127000000     0.932000000     1.991000000
H    -1.527000000     1.204000000     1.298000000
H    -2.860000000     1.545000000     1.929000000
O     3.290000000     5.301000000     2.074000000
H     3.548000000     5.130000000     1.169000000
H     3.300000000     4.441000000     2.494000000
O     2.680000000    -5.366000000     5.170000000
H     1.991000000    -4.748000000     5.412000000
H     3.048000000    -5.009000000     4.361000000
O     0.306000000    -3.678000000     4.975000000
H     0.177000000    -3.340000000     5.862000000
H     1.121000000    -3.272000000     4.681000000
O     2.760000000    -2.279000000     6.230000000
H     2.668000000    -1.341000000     6.061000000
H     1.971000000    -2.513000000     6.720000000
