161
-3020.87498
C     1.312000000    -0.061000000     0.661000000
H     2.342000000    -0.122000000     1.001000000
C     1.087000000    -0.375000000    -0.674000000
H     1.923000000    -0.607000000    -1.329000000
C    -0.187000000    -0.221000000    -1.198000000
C    -0.521000000    -0.619000000    -2.616000000
H    -0.737000000     0.299000000    -3.167000000
H     0.352000000    -1.163000000    -2.983000000
H    -1.375000000    -1.299000000    -2.608000000
C    -1.289000000     0.192000000    -0.380000000
H    -2.218000000     0.461000000    -0.874000000
C    -1.052000000     0.540000000     0.939000000
H    -1.841000000     0.841000000     1.622000000
C     0.258000000     0.371000000     1.499000000
C     0.555000000     0.617000000     2.972000000
O    -0.335000000     0.539000000     3.783000000
O     1.724000000     0.612000000     3.350000000
O     2.885000000    -0.162000000    -4.104000000
H     3.482000000    -0.809000000    -3.728000000
H     2.808000000     0.513000000    -3.430000000
O     0.475000000     0.560000000    -5.911000000
H     1.199000000     0.193000000    -5.405000000
H     0.388000000     1.457000000    -5.589000000
O     2.141000000    -1.174000000     7.044000000
H     1.837000000    -0.384000000     6.599000000
H     1.433000000    -1.395000000     7.649000000
O    -2.109000000     1.146000000    -6.139000000
H    -1.189000000     0.904000000    -6.028000000
H    -2.281000000     1.765000000    -5.430000000
O     5.374000000    -1.058000000     1.134000000
H     5.261000000    -0.153000000     0.844000000
H     4.884000000    -1.110000000     1.955000000
O    -5.189000000    -3.003000000    -1.986000000
H    -5.893000000    -2.681000000    -1.423000000
H    -4.603000000    -3.473000000    -1.392000000
O    -2.563000000     3.408000000    -4.604000000
H    -1.881000000     3.605000000    -3.961000000
H    -2.932000000     4.262000000    -4.831000000
O    -1.612000000    -5.702000000    -1.881000000
H    -2.431000000    -6.090000000    -2.189000000
H    -0.987000000    -5.871000000    -2.586000000
O    -0.403000000     4.854000000    -3.664000000
H    -0.250000000     5.786000000    -3.826000000
H    -0.264000000     4.749000000    -2.723000000
O     2.521000000     3.578000000    -1.510000000
H     3.323000000     3.084000000    -1.682000000
H     2.821000000     4.471000000    -1.343000000
O    -1.631000000     4.852000000     2.367000000
H    -1.262000000     4.082000000     2.801000000
H    -2.409000000     5.067000000     2.881000000
O     2.104000000    -2.356000000    -6.549000000
H     2.183000000    -2.943000000    -5.797000000
H     1.222000000    -1.990000000    -6.475000000
O     6.369000000    -0.037000000     3.909000000
H     5.725000000     0.641000000     3.707000000
H     5.850000000    -0.771000000     4.236000000
O     1.931000000    -4.166000000    -2.325000000
H     1.474000000    -3.814000000    -3.089000000
H     2.000000000    -5.105000000    -2.499000000
O    -0.795000000     1.835000000     8.725000000
H    -1.074000000     2.501000000     8.097000000
H    -0.162000000     1.302000000     8.244000000
O     0.296000000    -2.448000000     4.648000000
H     0.241000000    -2.857000000     3.784000000
H     0.044000000    -1.537000000     4.498000000
O    -4.577000000     1.299000000     6.088000000
H    -3.794000000     1.502000000     5.578000000
H    -5.211000000     0.990000000     5.441000000
O    -1.749000000     3.684000000     7.113000000
H    -2.366000000     4.413000000     7.053000000
H    -1.940000000     3.144000000     6.346000000
O     4.127000000     1.419000000     2.969000000
H     3.238000000     1.129000000     3.176000000
H     4.119000000     1.559000000     2.022000000
O    -2.323000000    -1.273000000     3.239000000
H    -1.739000000    -0.552000000     3.474000000
H    -3.148000000    -1.066000000     3.677000000
O    -3.764000000    -1.613000000     0.763000000
H    -3.698000000    -0.948000000     0.078000000
H    -3.319000000    -1.224000000     1.517000000
O     0.861000000     1.259000000     6.474000000
H     1.557000000     1.844000000     6.176000000
H     0.146000000     1.402000000     5.854000000
O     0.367000000     3.573000000     4.026000000
H     1.014000000     3.010000000     4.450000000
H     0.804000000     3.887000000     3.235000000
O    -0.199000000     3.998000000    -1.202000000
H    -0.440000000     3.748000000    -0.310000000
H     0.692000000     3.665000000    -1.311000000
O     4.773000000     1.522000000     0.359000000
H     4.444000000     1.494000000    -0.540000000
H     5.265000000     2.341000000     0.409000000
O    -4.412000000    -3.547000000    -6.154000000
H    -3.794000000    -3.071000000    -6.709000000
H    -4.386000000    -3.087000000    -5.316000000
O     3.227000000    -3.954000000     0.109000000
H     2.974000000    -3.994000000    -0.813000000
H     3.637000000    -3.095000000     0.208000000
O     4.615000000     2.011000000    -2.622000000
H     4.322000000     2.715000000    -3.200000000
H     5.443000000     1.718000000    -3.001000000
O     4.046000000    -2.050000000    -2.513000000
H     3.736000000    -2.943000000    -2.661000000
H     4.938000000    -2.157000000    -2.183000000
O    -4.992000000     0.787000000     0.340000000
H    -5.859000000     0.675000000     0.730000000
H    -5.145000000     1.333000000    -0.431000000
O     2.619000000    -4.664000000     3.045000000
H     1.982000000    -4.033000000     2.710000000
H     2.886000000    -5.167000000     2.275000000
O    -4.035000000     3.953000000     0.001000000
H    -4.392000000     4.658000000    -0.539000000
H    -4.402000000     3.153000000    -0.376000000
O    -1.408000000    -3.300000000     0.016000000
H    -1.745000000    -3.824000000    -0.711000000
H    -2.105000000    -2.671000000     0.202000000
O    -1.865000000    -3.683000000     5.635000000
H    -2.090000000    -4.248000000     4.896000000
H    -0.990000000    -3.355000000     5.429000000
O     0.471000000    -3.172000000     1.833000000
H     0.970000000    -2.692000000     1.172000000
H    -0.370000000    -3.352000000     1.414000000
O    -4.999000000    -0.608000000     3.657000000
H    -5.196000000    -1.540000000     3.567000000
H    -5.854000000    -0.191000000     3.759000000
O    -4.491000000     2.077000000    -2.473000000
H    -4.328000000     1.393000000    -3.123000000
H    -4.217000000     2.886000000    -2.904000000
O    -1.061000000    -2.375000000    -5.919000000
H    -1.616000000    -1.873000000    -5.322000000
H    -1.543000000    -2.380000000    -6.747000000
O     0.637000000    -4.432000000    -5.203000000
H     0.124000000    -5.228000000    -5.348000000
H    -0.014000000    -3.732000000    -5.159000000
O    -3.850000000    -1.793000000    -3.836000000
H    -4.238000000    -0.938000000    -4.020000000
H    -4.300000000    -2.096000000    -3.047000000
O     3.637000000    -1.263000000     4.148000000
H     2.921000000    -0.718000000     3.820000000
H     3.200000000    -1.991000000     4.590000000
O     0.449000000     3.310000000    -5.716000000
H     1.007000000     3.834000000    -6.290000000
H     0.091000000     3.940000000    -5.090000000
O    -2.458000000     2.314000000     4.609000000
H    -3.088000000     2.564000000     3.933000000
H    -1.757000000     1.871000000     4.131000000
O     2.206000000     3.566000000     1.871000000
H     2.121000000     2.617000000     1.966000000
H     1.910000000     3.745000000     0.979000000
O    -3.774000000     2.772000000     2.278000000
H    -4.082000000     1.939000000     1.922000000
H    -3.773000000     3.368000000     1.529000000
O     3.050000000     3.654000000    -4.512000000
H     2.588000000     4.488000000    -4.603000000
H     2.515000000     3.028000000    -4.999000000
O     3.936000000     5.397000000     2.644000000
H     4.696000000     5.126000000     2.128000000
H     3.268000000     4.739000000     2.449000000
O     2.711000000     2.805000000     5.609000000
H     3.387000000     2.521000000     4.994000000
H     3.096000000     3.556000000     6.060000000
