161
-3072.13729
C     0.636000000     1.325000000     0.336000000
H     1.237000000     2.226000000     0.423000000
C     0.776000000     0.648000000    -0.858000000
H     1.448000000     0.988000000    -1.642000000
C     0.187000000    -0.539000000    -1.076000000
C     0.213000000    -1.300000000    -2.438000000
H    -0.823000000    -1.641000000    -2.496000000
H     0.622000000    -0.643000000    -3.208000000
H     0.774000000    -2.217000000    -2.249000000
C    -0.597000000    -1.172000000    -0.112000000
H    -1.064000000    -2.144000000    -0.247000000
C    -0.714000000    -0.583000000     1.169000000
H    -1.360000000    -1.035000000     1.917000000
C    -0.128000000     0.710000000     1.386000000
C    -0.392000000     1.586000000     2.662000000
O    -0.796000000     1.051000000     3.698000000
O    -0.016000000     2.745000000     2.740000000
O    -0.716000000    -4.964000000     0.611000000
H    -0.860000000    -5.661000000     1.250000000
H    -0.813000000    -4.155000000     1.114000000
O     0.365000000    -1.110000000     4.654000000
H     0.167000000    -0.289000000     4.204000000
H    -0.207000000    -1.107000000     5.422000000
O     1.877000000     0.134000000     7.865000000
H     2.819000000     0.294000000     7.806000000
H     1.492000000     0.726000000     7.219000000
O    -2.342000000     3.275000000     8.150000000
H    -1.582000000     2.858000000     7.744000000
H    -1.970000000     3.949000000     8.719000000
O    -0.644000000     3.429000000    -2.253000000
H     0.292000000     3.625000000    -2.211000000
H    -1.073000000     4.262000000    -2.058000000
O     2.174000000    -5.254000000    -0.294000000
H     1.253000000    -4.997000000    -0.342000000
H     2.466000000    -5.272000000    -1.206000000
O    -2.397000000     0.840000000    -1.776000000
H    -1.707000000     1.446000000    -2.044000000
H    -1.953000000     0.204000000    -1.216000000
O     2.238000000     3.014000000     4.170000000
H     2.094000000     2.292000000     4.781000000
H     1.428000000     3.065000000     3.663000000
O     0.785000000     7.765000000     1.691000000
H     1.474000000     8.070000000     2.282000000
H     0.653000000     6.848000000     1.930000000
O    -1.316000000    -5.388000000    -5.644000000
H    -0.865000000    -4.549000000    -5.731000000
H    -0.798000000    -5.873000000    -5.001000000
O     3.455000000    -3.655000000     1.538000000
H     3.581000000    -4.320000000     2.215000000
H     2.999000000    -4.116000000     0.833000000
O     2.831000000    -0.460000000     3.207000000
H     2.017000000    -0.421000000     3.709000000
H     3.401000000    -1.034000000     3.719000000
O    -1.003000000    -3.592000000     3.267000000
H    -1.914000000    -3.428000000     3.512000000
H    -0.558000000    -2.761000000     3.432000000
O     0.539000000     1.602000000     6.071000000
H    -0.024000000     1.460000000     5.310000000
H     0.369000000     2.508000000     6.329000000
O    -4.717000000     2.076000000     5.835000000
H    -5.473000000     1.639000000     5.444000000
H    -4.453000000     2.726000000     5.184000000
O    -3.107000000     0.088000000     4.419000000
H    -3.659000000     0.869000000     4.449000000
H    -2.244000000     0.413000000     4.164000000
O     0.069000000     4.407000000     6.719000000
H    -0.367000000     4.746000000     5.937000000
H    -0.167000000     5.025000000     7.411000000
O     0.324000000    -0.083000000    -6.259000000
H     1.164000000    -0.432000000    -5.960000000
H     0.092000000     0.577000000    -5.606000000
O    -4.008000000     3.742000000     3.791000000
H    -3.978000000     3.364000000     2.912000000
H    -4.555000000     4.522000000     3.697000000
O    -0.780000000     0.581000000     8.349000000
H    -1.064000000    -0.054000000     7.691000000
H     0.110000000     0.816000000     8.086000000
O     2.717000000    -1.712000000    -5.575000000
H     2.903000000    -2.195000000    -6.380000000
H     3.560000000    -1.336000000    -5.321000000
O     1.888000000     5.965000000     4.808000000
H     1.906000000     5.044000000     4.549000000
H     2.752000000     6.299000000     4.568000000
O     1.597000000    -3.781000000     5.380000000
H     1.060000000    -4.571000000     5.325000000
H     1.024000000    -3.080000000     5.070000000
O    -4.200000000    -3.205000000    -5.557000000
H    -4.431000000    -3.421000000    -4.654000000
H    -3.325000000    -2.822000000    -5.496000000
O    -1.837000000    -1.362000000     6.362000000
H    -2.323000000    -2.158000000     6.575000000
H    -2.434000000    -0.855000000     5.812000000
O    -0.902000000     6.908000000     4.448000000
H     0.036000000     7.096000000     4.455000000
H    -0.956000000     5.957000000     4.357000000
O     2.505000000     4.510000000    -0.455000000
H     2.685000000     5.013000000    -1.249000000
H     3.052000000     3.729000000    -0.536000000
O    -2.378000000     5.193000000     1.082000000
H    -1.433000000     5.339000000     1.048000000
H    -2.471000000     4.243000000     1.158000000
O     0.489000000     2.124000000    -4.519000000
H     0.600000000     2.825000000    -5.161000000
H    -0.117000000     2.485000000    -3.873000000
O     2.406000000    -4.271000000    -3.067000000
H     2.709000000    -3.372000000    -2.937000000
H     2.210000000    -4.324000000    -4.003000000
O    -1.283000000     4.284000000     4.384000000
H    -0.774000000     3.627000000     3.908000000
H    -2.183000000     3.959000000     4.352000000
O     4.648000000     3.073000000    -1.422000000
H     4.991000000     2.826000000    -0.564000000
H     4.161000000     2.303000000    -1.716000000
O    -3.942000000    -2.910000000     0.090000000
H    -3.766000000    -3.707000000     0.589000000
H    -3.631000000    -3.106000000    -0.794000000
O     4.082000000     5.639000000     1.682000000
H     3.601000000     5.151000000     1.013000000
H     4.182000000     6.516000000     1.313000000
O     3.923000000    -0.985000000     0.891000000
H     3.324000000    -0.657000000     1.562000000
H     3.935000000    -1.933000000     1.024000000
O    -0.294000000    -2.913000000    -6.192000000
H    -0.235000000    -2.068000000    -5.745000000
H     0.580000000    -3.052000000    -6.557000000
O    -3.650000000     2.384000000     1.286000000
H    -3.910000000     1.507000000     1.569000000
H    -4.090000000     2.504000000     0.444000000
O     0.742000000     5.030000000     1.640000000
H     0.301000000     4.215000000     1.883000000
H     1.351000000     4.775000000     0.948000000
O     4.724000000     0.195000000    -1.494000000
H     4.301000000    -0.346000000    -0.828000000
H     5.428000000     0.644000000    -1.026000000
O     3.363000000     2.185000000    -3.886000000
H     2.447000000     1.923000000    -3.974000000
H     3.381000000     3.098000000    -4.174000000
O    -3.509000000    -2.558000000     3.954000000
H    -4.316000000    -2.854000000     3.532000000
H    -3.677000000    -1.642000000     4.176000000
O    -4.821000000    -3.183000000    -2.968000000
H    -4.224000000    -3.833000000    -2.599000000
H    -5.642000000    -3.313000000    -2.492000000
O     4.882000000     3.764000000     3.567000000
H     4.041000000     3.673000000     4.014000000
H     4.776000000     4.537000000     3.012000000
O     5.249000000     1.062000000     3.028000000
H     5.055000000     1.959000000     3.298000000
H     4.408000000     0.609000000     3.079000000
O    -2.731000000    -0.923000000    -4.178000000
H    -1.968000000    -0.545000000    -4.615000000
H    -2.854000000    -0.381000000    -3.399000000
O    -4.235000000    -0.442000000     1.375000000
H    -3.494000000    -0.980000000     1.095000000
H    -5.001000000    -0.876000000     0.998000000
O    -2.341000000    -4.858000000    -1.621000000
H    -2.033000000    -5.372000000    -2.367000000
H    -1.658000000    -4.963000000    -0.959000000
O     4.797000000    -0.206000000    -4.736000000
H     4.990000000    -0.189000000    -3.798000000
H     4.483000000     0.677000000    -4.932000000
