161
-3026.62481
C    -0.445000000     1.368000000     0.398000000
H    -0.763000000     2.391000000     0.585000000
C     0.593000000     1.043000000    -0.495000000
H     1.101000000     1.871000000    -0.984000000
C     0.907000000    -0.286000000    -0.799000000
C     2.001000000    -0.581000000    -1.866000000
H     2.480000000     0.325000000    -2.244000000
H     2.761000000    -1.197000000    -1.380000000
H     1.572000000    -1.145000000    -2.697000000
C     0.252000000    -1.316000000    -0.140000000
H     0.315000000    -2.332000000    -0.523000000
C    -0.763000000    -1.001000000     0.739000000
H    -1.354000000    -1.802000000     1.176000000
C    -1.134000000     0.337000000     1.073000000
C    -2.221000000     0.678000000     2.088000000
O    -3.034000000    -0.145000000     2.476000000
O    -2.271000000     1.795000000     2.585000000
O     3.985000000     3.804000000    -1.691000000
H     3.591000000     4.671000000    -1.604000000
H     3.756000000     3.354000000    -0.878000000
O    -6.355000000     0.133000000     2.738000000
H    -5.519000000     0.515000000     2.471000000
H    -6.154000000    -0.341000000     3.545000000
O    -3.814000000     3.432000000     1.121000000
H    -3.281000000     2.921000000     1.731000000
H    -3.969000000     2.840000000     0.385000000
O    -3.184000000     2.315000000    -1.946000000
H    -3.323000000     1.368000000    -1.929000000
H    -2.375000000     2.428000000    -2.445000000
O     2.887000000    -2.412000000    -6.766000000
H     3.101000000    -1.849000000    -6.022000000
H     2.012000000    -2.132000000    -7.035000000
O    -1.218000000     4.098000000     6.646000000
H    -1.505000000     3.288000000     6.224000000
H    -0.279000000     3.975000000     6.787000000
O    -0.313000000     5.840000000     1.719000000
H     0.438000000     5.268000000     1.883000000
H    -0.889000000     5.323000000     1.156000000
O     3.343000000     0.872000000     3.592000000
H     2.417000000     1.116000000     3.591000000
H     3.473000000     0.422000000     2.757000000
O    -3.211000000    -1.976000000     4.334000000
H    -3.118000000    -1.643000000     5.227000000
H    -3.212000000    -1.192000000     3.785000000
O    -7.708000000     2.116000000     4.314000000
H    -8.004000000     2.912000000     3.873000000
H    -7.156000000     1.676000000     3.668000000
O    -6.608000000    -1.359000000     5.335000000
H    -7.560000000    -1.334000000     5.431000000
H    -6.432000000    -2.197000000     4.908000000
O    -2.590000000    -4.178000000    -0.871000000
H    -3.504000000    -4.225000000    -0.589000000
H    -2.113000000    -4.694000000    -0.220000000
O    -3.523000000    -1.366000000    -4.185000000
H    -2.881000000    -0.771000000    -3.797000000
H    -4.002000000    -0.826000000    -4.813000000
O    -4.445000000     4.076000000     3.814000000
H    -3.800000000     3.457000000     4.154000000
H    -4.374000000     3.998000000     2.863000000
O    -4.252000000     2.648000000     7.404000000
H    -4.957000000     2.009000000     7.511000000
H    -3.666000000     2.251000000     6.759000000
O     0.826000000    -3.629000000     2.513000000
H     1.149000000    -2.887000000     3.024000000
H     1.165000000    -3.477000000     1.630000000
O    -1.552000000     0.147000000    -2.837000000
H    -1.718000000     0.806000000    -3.511000000
H    -0.775000000     0.465000000    -2.376000000
O    -0.272000000     4.082000000    -2.995000000
H    -0.075000000     3.645000000    -3.823000000
H     0.361000000     4.798000000    -2.946000000
O    -2.429000000    -0.847000000     6.826000000
H    -1.623000000    -1.131000000     7.258000000
H    -2.966000000    -0.490000000     7.533000000
O    -6.358000000    -3.935000000     4.222000000
H    -7.003000000    -4.348000000     3.647000000
H    -5.565000000    -3.876000000     3.690000000
O    -1.301000000    -3.969000000    -5.399000000
H    -1.420000000    -4.498000000    -4.610000000
H    -1.274000000    -3.067000000    -5.081000000
O     3.497000000    -0.611000000    -4.808000000
H     3.365000000     0.289000000    -5.106000000
H     4.430000000    -0.776000000    -4.946000000
O     0.273000000    -6.513000000    -3.348000000
H     0.388000000    -6.762000000    -2.431000000
H     0.801000000    -5.720000000    -3.449000000
O     6.152000000    -2.477000000    -1.010000000
H     5.513000000    -2.469000000    -0.297000000
H     6.681000000    -1.693000000    -0.865000000
O     2.550000000     3.688000000    -3.958000000
H     3.067000000     3.323000000    -3.240000000
H     3.001000000     4.500000000    -4.188000000
O     1.098000000    -3.906000000    -3.051000000
H     0.316000000    -3.420000000    -2.790000000
H     1.161000000    -3.769000000    -3.996000000
O     4.337000000    -2.777000000    -3.263000000
H     4.430000000    -2.775000000    -2.311000000
H     3.709000000    -2.078000000    -3.445000000
O    -1.381000000    -4.072000000     4.045000000
H    -1.949000000    -3.321000000     4.218000000
H    -0.575000000    -3.688000000     3.701000000
O     6.220000000     2.295000000    -2.905000000
H     5.413000000     2.593000000    -2.486000000
H     6.297000000     2.836000000    -3.690000000
O    -4.713000000    -0.906000000     0.151000000
H    -4.179000000    -0.657000000     0.905000000
H    -4.105000000    -1.360000000    -0.433000000
O     2.126000000     4.433000000     1.991000000
H     2.700000000     3.674000000     1.889000000
H     2.649000000     5.063000000     2.486000000
O    -3.210000000     6.583000000    -0.288000000
H    -2.505000000     5.940000000    -0.209000000
H    -3.462000000     6.774000000     0.615000000
O    -7.500000000    -2.002000000     0.147000000
H    -6.846000000    -1.322000000     0.310000000
H    -8.177000000    -1.848000000     0.806000000
O     1.018000000    -1.241000000     3.817000000
H     0.724000000    -0.516000000     3.265000000
H     0.807000000    -0.964000000     4.708000000
O    -2.488000000     1.779000000     5.269000000
H    -2.653000000     0.890000000     5.582000000
H    -2.548000000     1.712000000     4.316000000
O     0.587000000     1.668000000     3.584000000
H     0.442000000     2.062000000     4.444000000
H     0.043000000     2.184000000     2.990000000
O    -1.588000000     4.531000000    -0.600000000
H    -1.246000000     4.262000000    -1.453000000
H    -2.091000000     3.775000000    -0.295000000
O     1.174000000     6.306000000    -2.168000000
H     2.059000000     6.615000000    -2.364000000
H     1.105000000     6.369000000    -1.215000000
O    -2.534000000    -6.667000000    -1.672000000
H    -2.325000000    -5.734000000    -1.626000000
H    -2.448000000    -6.976000000    -0.771000000
O    -1.290000000    -2.623000000    -2.624000000
H    -1.701000000    -1.766000000    -2.507000000
H    -1.871000000    -3.231000000    -2.167000000
O     3.870000000     2.623000000     0.717000000
H     4.077000000     1.704000000     0.886000000
H     4.721000000     3.061000000     0.697000000
O    -4.108000000    -3.914000000     2.658000000
H    -3.926000000    -3.059000000     3.046000000
H    -3.244000000    -4.283000000     2.474000000
O    -1.646000000    -5.452000000     1.323000000
H    -1.128000000    -4.993000000     1.984000000
H    -1.864000000    -6.291000000     1.730000000
O     0.358000000     3.048000000    -5.779000000
H     1.088000000     3.102000000    -5.163000000
H     0.770000000     2.860000000    -6.623000000
O     1.773000000    -4.327000000    -0.373000000
H     1.716000000    -5.282000000    -0.382000000
H     1.711000000    -4.075000000    -1.295000000
O     4.294000000     0.049000000     1.077000000
H     4.787000000    -0.551000000     1.637000000
H     3.984000000    -0.497000000     0.355000000
O     4.014000000    -2.832000000     0.680000000
H     3.917000000    -3.046000000     1.608000000
H     3.263000000    -3.250000000     0.257000000
O     4.097000000     1.813000000    -6.112000000
H     3.896000000     2.747000000    -6.169000000
H     4.968000000     1.732000000    -6.500000000
