161
-3048.41025
C    -0.349000000     1.238000000     0.694000000
H    -0.715000000     2.167000000     1.125000000
C    -0.954000000     0.744000000    -0.452000000
H    -1.810000000     1.254000000    -0.886000000
C    -0.582000000    -0.454000000    -1.070000000
C    -1.365000000    -1.146000000    -2.105000000
H    -2.384000000    -1.225000000    -1.721000000
H    -1.546000000    -0.631000000    -3.051000000
H    -0.894000000    -2.105000000    -2.330000000
C     0.588000000    -1.087000000    -0.504000000
H     0.921000000    -1.997000000    -0.995000000
C     1.318000000    -0.559000000     0.596000000
H     2.242000000    -1.016000000     0.942000000
C     0.820000000     0.599000000     1.217000000
C     1.371000000     1.220000000     2.536000000
O     2.149000000     0.601000000     3.241000000
O     1.185000000     2.389000000     2.770000000
O     0.368000000    -2.218000000     6.355000000
H    -0.382000000    -1.727000000     6.021000000
H     0.108000000    -2.482000000     7.237000000
O    -0.088000000     4.247000000    -4.404000000
H     0.018000000     4.571000000    -3.510000000
H    -0.269000000     3.312000000    -4.300000000
O    -6.150000000     0.120000000    -2.608000000
H    -6.680000000     0.896000000    -2.425000000
H    -6.740000000    -0.616000000    -2.448000000
O     3.530000000     3.728000000     5.677000000
H     3.917000000     2.877000000     5.472000000
H     2.983000000     3.932000000     4.918000000
O     3.003000000    -4.388000000     2.547000000
H     2.442000000    -4.553000000     1.789000000
H     2.766000000    -3.505000000     2.832000000
O    -0.946000000     1.634000000    -4.139000000
H    -1.835000000     1.971000000    -4.025000000
H    -1.038000000     0.929000000    -4.780000000
O     0.737000000    -2.219000000     3.716000000
H     0.563000000    -2.328000000     4.651000000
H     1.324000000    -1.465000000     3.668000000
O     4.544000000     1.782000000     3.712000000
H     4.541000000     2.506000000     3.085000000
H     3.746000000     1.291000000     3.515000000
O    -4.746000000     2.609000000    -1.006000000
H    -3.961000000     2.869000000    -1.489000000
H    -5.473000000     2.904000000    -1.555000000
O    -4.975000000     0.086000000    -5.096000000
H    -4.152000000     0.574000000    -5.084000000
H    -5.274000000     0.098000000    -4.186000000
O     4.785000000     6.012000000     3.986000000
H     4.495000000     6.858000000     4.327000000
H     3.975000000     5.531000000     3.817000000
O     1.746000000     1.137000000     5.735000000
H     1.935000000     0.979000000     4.810000000
H     0.833000000     1.423000000     5.747000000
O    -2.816000000     3.367000000     1.628000000
H    -3.373000000     2.621000000     1.852000000
H    -3.291000000     3.819000000     0.931000000
O    -2.671000000    -4.498000000    -0.817000000
H    -2.201000000    -3.928000000    -1.426000000
H    -3.479000000    -4.024000000    -0.620000000
O     2.779000000     4.488000000     3.201000000
H     2.374000000     5.202000000     2.709000000
H     2.265000000     3.715000000     2.968000000
O    -1.780000000     0.257000000    -6.597000000
H    -0.915000000     0.323000000    -7.001000000
H    -2.258000000    -0.357000000    -7.154000000
O     3.216000000    -2.138000000     6.853000000
H     2.441000000    -1.606000000     7.036000000
H     2.890000000    -3.038000000     6.834000000
O     2.894000000    -3.496000000    -0.723000000
H     2.202000000    -4.140000000    -0.573000000
H     2.767000000    -3.215000000    -1.629000000
O    -0.155000000    -4.690000000    -2.772000000
H     0.318000000    -3.912000000    -3.066000000
H    -0.980000000    -4.666000000    -3.257000000
O    -3.570000000     0.581000000     2.442000000
H    -2.761000000     0.175000000     2.131000000
H    -3.833000000     0.047000000     3.192000000
O    -0.147000000    -4.337000000     2.149000000
H    -0.964000000    -4.186000000     2.625000000
H     0.486000000    -3.754000000     2.568000000
O     1.078000000     6.745000000     2.940000000
H     0.601000000     6.932000000     2.132000000
H     1.224000000     7.604000000     3.337000000
O     0.802000000    -5.166000000    -0.126000000
H     0.201000000    -5.074000000    -0.865000000
H     0.294000000    -4.879000000     0.633000000
O     1.555000000     0.209000000    -3.805000000
H     1.985000000     0.557000000    -3.024000000
H     0.684000000     0.605000000    -3.796000000
O    -3.472000000     2.821000000    -4.270000000
H    -4.430000000     2.824000000    -4.277000000
H    -3.231000000     3.713000000    -4.021000000
O    -3.713000000    -2.308000000    -4.833000000
H    -4.366000000    -2.775000000    -5.354000000
H    -3.930000000    -1.383000000    -4.949000000
O     1.150000000    -5.019000000    -5.938000000
H     0.650000000    -4.365000000    -6.426000000
H     0.887000000    -4.891000000    -5.026000000
O     5.704000000    -4.214000000    -1.101000000
H     4.921000000    -3.705000000    -0.892000000
H     5.836000000    -4.774000000    -0.336000000
O     4.578000000    -1.113000000    -3.198000000
H     4.193000000    -0.506000000    -2.565000000
H     5.426000000    -0.726000000    -3.414000000
O     4.698000000    -1.799000000     0.722000000
H     4.374000000    -1.628000000     1.606000000
H     3.950000000    -2.181000000     0.262000000
O     1.526000000     4.065000000     0.727000000
H     1.042000000     3.553000000     1.375000000
H     2.417000000     3.717000000     0.763000000
O     2.645000000     1.348000000    -1.524000000
H     3.319000000     1.533000000    -0.870000000
H     1.857000000     1.166000000    -1.013000000
O     6.533000000     0.335000000     4.651000000
H     6.680000000     0.973000000     5.350000000
H     5.781000000     0.678000000     4.168000000
O    -5.086000000    -0.091000000     0.282000000
H    -5.007000000     0.644000000    -0.326000000
H    -4.667000000     0.218000000     1.086000000
O    -4.626000000    -2.608000000    -0.229000000
H    -4.676000000    -1.653000000    -0.199000000
H    -5.515000000    -2.887000000    -0.448000000
O    -1.270000000     1.703000000     6.120000000
H    -1.145000000     2.423000000     5.501000000
H    -1.640000000     0.995000000     5.591000000
O     2.152000000     0.441000000     8.289000000
H     1.887000000     0.594000000     7.382000000
H     3.057000000     0.752000000     8.329000000
O     1.060000000    -2.525000000    -3.886000000
H     1.013000000    -1.577000000    -3.766000000
H     1.770000000    -2.652000000    -4.516000000
O     5.445000000     0.785000000    -0.063000000
H     6.251000000     0.835000000    -0.578000000
H     5.362000000    -0.141000000     0.163000000
O    -2.181000000    -4.672000000    -4.526000000
H    -2.420000000    -3.745000000    -4.536000000
H    -2.279000000    -4.955000000    -5.435000000
O    -1.966000000    -1.320000000     5.028000000
H    -1.810000000    -1.324000000     4.083000000
H    -2.899000000    -1.124000000     5.116000000
O    -1.157000000     3.070000000     3.817000000
H    -0.349000000     2.811000000     3.374000000
H    -1.815000000     3.088000000     3.122000000
O     0.475000000     5.039000000     4.968000000
H     0.764000000     5.664000000     4.303000000
H    -0.121000000     4.453000000     4.502000000
O     4.087000000     2.978000000     0.923000000
H     4.858000000     3.502000000     1.142000000
H     4.441000000     2.201000000     0.491000000
O    -3.575000000     5.345000000    -0.017000000
H    -4.184000000     4.962000000    -0.649000000
H    -3.282000000     6.157000000    -0.429000000
O     3.626000000    -1.465000000     3.412000000
H     3.777000000    -1.428000000     4.357000000
H     3.036000000    -0.732000000     3.235000000
O    -0.081000000     5.511000000    -1.643000000
H     0.699000000     5.629000000    -1.101000000
H    -0.698000000     5.047000000    -1.077000000
O    -1.876000000    -1.572000000     2.011000000
H    -1.026000000    -1.998000000     1.904000000
H    -2.340000000    -1.755000000     1.193000000
