161
-3060.57799
C    -0.080000000     1.275000000     0.706000000
H    -0.029000000     2.241000000     1.201000000
C     0.672000000     1.008000000    -0.405000000
H     1.304000000     1.740000000    -0.901000000
C     0.649000000    -0.174000000    -1.079000000
C     1.488000000    -0.510000000    -2.258000000
H     1.089000000    -0.093000000    -3.185000000
H     2.496000000    -0.156000000    -2.034000000
H     1.493000000    -1.595000000    -2.390000000
C    -0.144000000    -1.199000000    -0.527000000
H    -0.084000000    -2.206000000    -0.932000000
C    -0.930000000    -0.919000000     0.645000000
H    -1.528000000    -1.729000000     1.054000000
C    -0.888000000     0.287000000     1.328000000
C    -1.666000000     0.589000000     2.582000000
O    -2.512000000    -0.183000000     3.024000000
O    -1.338000000     1.619000000     3.178000000
O    -4.690000000     3.547000000     3.407000000
H    -3.777000000     3.726000000     3.182000000
H    -4.669000000     2.688000000     3.828000000
O    -1.901000000     4.172000000     3.101000000
H    -1.659000000     3.258000000     3.256000000
H    -1.268000000     4.677000000     3.611000000
O    -6.001000000    -0.534000000    -1.665000000
H    -6.267000000     0.273000000    -2.105000000
H    -5.050000000    -0.459000000    -1.582000000
O    -5.294000000     0.976000000     6.757000000
H    -5.820000000     1.760000000     6.918000000
H    -5.367000000     0.830000000     5.813000000
O    -1.242000000     4.891000000     5.798000000
H    -1.917000000     4.218000000     5.707000000
H    -0.510000000     4.440000000     6.220000000
O    -0.566000000     5.533000000     0.526000000
H     0.232000000     5.298000000     0.999000000
H    -0.502000000     5.058000000    -0.302000000
O     5.659000000     1.031000000    -1.267000000
H     6.486000000     1.496000000    -1.394000000
H     5.112000000     1.645000000    -0.776000000
O     3.383000000     2.247000000     2.346000000
H     3.785000000     1.497000000     1.907000000
H     3.598000000     2.127000000     3.271000000
O    -3.089000000    -2.843000000     3.669000000
H    -2.530000000    -3.495000000     3.247000000
H    -2.696000000    -2.002000000     3.433000000
O    -4.951000000     0.901000000     4.105000000
H    -5.695000000     0.388000000     3.789000000
H    -4.190000000     0.508000000     3.679000000
O    -1.000000000    -4.879000000    -1.738000000
H    -1.865000000    -4.821000000    -1.331000000
H    -0.420000000    -4.419000000    -1.132000000
O    -3.046000000    -0.144000000    -1.600000000
H    -2.592000000     0.551000000    -2.076000000
H    -2.346000000    -0.645000000    -1.182000000
O    -2.594000000     6.717000000     1.852000000
H    -1.892000000     6.140000000     1.552000000
H    -2.142000000     7.436000000     2.291000000
O    -3.402000000    -0.639000000     7.454000000
H    -4.074000000    -0.015000000     7.179000000
H    -2.584000000    -0.277000000     7.111000000
O     1.082000000    -4.126000000    -0.108000000
H     1.575000000    -3.672000000     0.575000000
H     1.752000000    -4.480000000    -0.692000000
O    -2.061000000     2.091000000    -2.509000000
H    -1.425000000     2.370000000    -3.168000000
H    -1.923000000     2.689000000    -1.774000000
O     2.970000000     3.998000000    -1.425000000
H     3.821000000     3.828000000    -1.830000000
H     2.753000000     4.892000000    -1.692000000
O    -2.265000000    -3.034000000     6.750000000
H    -2.137000000    -3.319000000     7.654000000
H    -2.834000000    -2.267000000     6.819000000
O     1.572000000    -3.755000000    -4.234000000
H     1.762000000    -2.820000000    -4.165000000
H     0.792000000    -3.801000000    -4.786000000
O    -3.329000000    -2.843000000    -2.524000000
H    -3.716000000    -3.133000000    -1.698000000
H    -3.210000000    -1.900000000    -2.415000000
O     2.958000000     6.235000000     0.453000000
H     2.477000000     5.408000000     0.426000000
H     3.529000000     6.155000000     1.217000000
O     4.372000000     1.127000000    -4.283000000
H     4.521000000     1.329000000    -3.359000000
H     5.107000000     1.536000000    -4.739000000
O     5.680000000    -1.529000000    -2.209000000
H     5.274000000    -1.986000000    -1.473000000
H     5.544000000    -0.601000000    -2.018000000
O     2.934000000    -4.507000000    -1.874000000
H     2.378000000    -4.213000000    -2.595000000
H     3.657000000    -4.967000000    -2.302000000
O     3.215000000    -1.496000000    -4.997000000
H     3.052000000    -0.664000000    -4.553000000
H     4.158000000    -1.497000000    -5.164000000
O    -4.016000000    -1.262000000     0.895000000
H    -4.004000000    -0.523000000     0.287000000
H    -3.572000000    -0.936000000     1.677000000
O     1.680000000     4.523000000     2.154000000
H     2.147000000     3.695000000     2.267000000
H     2.047000000     5.098000000     2.826000000
O    -3.729000000     4.496000000     0.462000000
H    -3.593000000     3.555000000     0.578000000
H    -3.347000000     4.891000000     1.246000000
O     2.573000000    -1.835000000     4.274000000
H     2.007000000    -2.351000000     4.848000000
H     2.141000000    -0.983000000     4.216000000
O     2.235000000    -2.493000000     1.590000000
H     1.866000000    -1.612000000     1.518000000
H     2.379000000    -2.616000000     2.528000000
O    -2.577000000     1.597000000     5.565000000
H    -3.445000000     1.196000000     5.513000000
H    -2.172000000     1.404000000     4.720000000
O     1.556000000     1.149000000     4.402000000
H     1.745000000     2.052000000     4.657000000
H     0.691000000     1.192000000     3.992000000
O    -0.204000000     3.326000000    -4.306000000
H    -0.653000000     3.914000000    -4.914000000
H     0.626000000     3.124000000    -4.738000000
O    -0.547000000    -2.989000000    -6.509000000
H    -0.870000000    -3.861000000    -6.285000000
H    -0.819000000    -2.436000000    -5.776000000
O    -0.292000000     4.290000000    -1.887000000
H     0.641000000     4.235000000    -1.677000000
H    -0.352000000     3.987000000    -2.793000000
O    -0.966000000    -4.711000000    -4.417000000
H    -0.690000000    -5.624000000    -4.496000000
H    -0.802000000    -4.490000000    -3.500000000
O    -1.637000000    -1.487000000    -4.378000000
H    -2.061000000    -2.231000000    -3.952000000
H    -2.351000000    -0.876000000    -4.562000000
O    -2.815000000    -4.355000000     0.160000000
H    -3.632000000    -4.205000000     0.637000000
H    -2.160000000    -4.492000000     0.845000000
O    -3.391000000     3.634000000     7.273000000
H    -2.940000000     2.874000000     6.906000000
H    -4.313000000     3.377000000     7.295000000
O    -1.078000000    -4.497000000     2.250000000
H    -0.215000000    -4.272000000     1.902000000
H    -1.058000000    -5.449000000     2.346000000
O    -5.608000000    -3.368000000     0.799000000
H    -5.132000000    -2.543000000     0.704000000
H    -6.446000000    -3.118000000     1.188000000
O     6.056000000    -1.971000000    -4.905000000
H     6.145000000    -1.761000000    -3.975000000
H     6.419000000    -1.211000000    -5.359000000
O     0.640000000     0.179000000    -7.188000000
H    -0.003000000    -0.057000000    -7.857000000
H     0.555000000    -0.505000000    -6.523000000
O     2.481000000     3.142000000    -5.149000000
H     2.673000000     3.643000000    -4.356000000
H     2.844000000     2.273000000    -4.977000000
O    -4.452000000     1.827000000     0.512000000
H    -4.775000000     2.254000000    -0.281000000
H    -5.243000000     1.577000000     0.989000000
O     2.031000000    -2.894000000    -7.305000000
H     2.258000000    -2.575000000    -6.431000000
H     1.147000000    -3.248000000    -7.209000000
O     4.588000000     0.141000000     1.363000000
H     4.686000000    -0.425000000     2.129000000
H     4.497000000    -0.465000000     0.628000000
O     4.270000000    -2.673000000    -0.095000000
H     3.537000000    -2.621000000     0.518000000
H     3.984000000    -3.301000000    -0.759000000
