161
-3037.41238
C     0.472000000     1.064000000    -0.957000000
H     0.810000000     1.685000000    -1.783000000
C    -0.141000000    -0.168000000    -1.309000000
H    -0.303000000    -0.485000000    -2.336000000
C    -0.628000000    -1.027000000    -0.366000000
C    -1.185000000    -2.398000000    -0.675000000
H    -0.417000000    -3.163000000    -0.552000000
H    -1.983000000    -2.811000000    -0.053000000
H    -1.387000000    -2.439000000    -1.747000000
C    -0.327000000    -0.705000000     0.981000000
H    -0.427000000    -1.475000000     1.741000000
C     0.229000000     0.513000000     1.379000000
H     0.363000000     0.764000000     2.428000000
C     0.714000000     1.377000000     0.418000000
C     1.260000000     2.711000000     0.835000000
O     1.649000000     2.928000000     1.955000000
O     1.298000000     3.630000000     0.043000000
O     2.440000000     6.889000000     3.927000000
H     2.531000000     6.505000000     3.055000000
H     2.056000000     7.752000000     3.770000000
O    -2.198000000    -0.853000000     5.807000000
H    -3.075000000    -1.163000000     5.582000000
H    -2.293000000     0.096000000     5.888000000
O     2.766000000    -2.475000000     0.625000000
H     2.338000000    -1.780000000     1.126000000
H     2.490000000    -2.324000000    -0.279000000
O     0.930000000    -3.566000000    -3.697000000
H     1.875000000    -3.508000000    -3.558000000
H     0.694000000    -4.438000000    -3.379000000
O    -2.423000000     1.410000000     0.495000000
H    -1.736000000     0.744000000     0.501000000
H    -2.712000000     1.449000000    -0.417000000
O     2.557000000     5.740000000     1.448000000
H     2.057000000     5.081000000     0.967000000
H     3.430000000     5.358000000     1.540000000
O     3.033000000     4.806000000     6.304000000
H     2.235000000     5.166000000     5.917000000
H     2.952000000     4.995000000     7.239000000
O    -2.114000000     1.918000000    -3.801000000
H    -2.652000000     1.336000000    -3.263000000
H    -1.723000000     2.528000000    -3.175000000
O    -3.782000000    -2.497000000     1.976000000
H    -3.057000000    -2.768000000     2.538000000
H    -3.962000000    -1.593000000     2.235000000
O    -4.160000000     0.911000000    -1.918000000
H    -4.780000000     1.561000000    -1.587000000
H    -4.519000000     0.071000000    -1.632000000
O    -1.526000000    -3.391000000    -5.236000000
H    -0.851000000    -3.493000000    -4.566000000
H    -2.301000000    -3.103000000    -4.753000000
O     3.622000000     6.928000000    -1.677000000
H     4.245000000     7.420000000    -2.213000000
H     3.871000000     7.129000000    -0.775000000
O    -1.972000000     1.804000000     4.803000000
H    -1.894000000     2.452000000     4.102000000
H    -2.131000000     2.322000000     5.592000000
O     1.976000000    -4.763000000     1.673000000
H     2.580000000    -5.020000000     2.369000000
H     2.342000000    -3.950000000     1.325000000
O    -0.717000000     5.363000000     6.361000000
H    -1.177000000     4.583000000     6.672000000
H    -0.471000000     5.152000000     5.460000000
O     1.429000000    -6.059000000    -2.593000000
H     1.504000000    -6.137000000    -1.641000000
H     2.335000000    -6.032000000    -2.902000000
O    -5.417000000    -3.378000000    -2.171000000
H    -6.304000000    -3.353000000    -2.531000000
H    -4.941000000    -3.975000000    -2.748000000
O     5.224000000     5.209000000     0.673000000
H     5.807000000     4.640000000     1.176000000
H     5.337000000     4.925000000    -0.234000000
O     1.366000000     8.605000000    -0.101000000
H     1.298000000     7.651000000    -0.064000000
H     2.160000000     8.808000000     0.394000000
O    -1.371000000     3.951000000    -2.085000000
H    -1.487000000     4.663000000    -2.714000000
H    -0.541000000     4.147000000    -1.650000000
O    -5.425000000     0.798000000     0.958000000
H    -4.621000000     1.030000000     1.423000000
H    -5.166000000     0.087000000     0.372000000
O    -0.450000000     5.592000000     0.475000000
H    -0.455000000     5.579000000     1.432000000
H     0.017000000     4.794000000     0.227000000
O    -0.615000000    -0.693000000    -6.636000000
H    -1.055000000    -1.435000000    -6.222000000
H     0.313000000    -0.926000000    -6.621000000
O     0.987000000    -2.324000000     5.646000000
H     1.812000000    -1.879000000     5.449000000
H     0.368000000    -1.616000000     5.820000000
O    -2.226000000     3.557000000     2.251000000
H    -2.839000000     4.225000000     1.946000000
H    -2.196000000     2.916000000     1.541000000
O     2.786000000    -0.094000000    -4.047000000
H     2.698000000     0.734000000    -3.574000000
H     3.428000000    -0.592000000    -3.541000000
O     3.233000000    -0.312000000     5.182000000
H     2.907000000     0.567000000     4.986000000
H     3.689000000    -0.217000000     6.019000000
O    -3.955000000     4.857000000    -1.551000000
H    -4.557000000     4.113000000    -1.577000000
H    -3.084000000     4.461000000    -1.573000000
O    -2.168000000    -6.975000000     1.992000000
H    -2.657000000    -7.536000000     2.594000000
H    -1.889000000    -7.563000000     1.290000000
O     2.402000000     2.584000000    -3.823000000
H     1.941000000     3.286000000    -3.364000000
H     1.759000000     2.241000000    -4.443000000
O    -0.681000000     7.255000000     3.581000000
H    -0.290000000     7.697000000     4.336000000
H    -0.168000000     6.453000000     3.482000000
O    -4.817000000    -1.418000000    -0.533000000
H    -4.055000000    -1.840000000    -0.136000000
H    -5.117000000    -2.039000000    -1.196000000
O     1.713000000     4.972000000    -2.208000000
H     2.523000000     5.452000000    -2.037000000
H     1.616000000     4.391000000    -1.453000000
O     2.207000000    -1.331000000    -6.294000000
H     2.407000000    -0.733000000    -7.014000000
H     2.631000000    -0.937000000    -5.531000000
O     0.140000000    -6.025000000     0.668000000
H     0.839000000    -5.497000000     1.054000000
H    -0.438000000    -6.231000000     1.403000000
O     0.199000000     1.732000000    -5.270000000
H     0.010000000     0.922000000    -5.744000000
H    -0.575000000     1.877000000    -4.726000000
O     6.043000000     0.438000000     2.948000000
H     6.767000000     0.117000000     3.485000000
H     5.320000000     0.551000000     3.565000000
O    -2.065000000    -6.093000000    -2.342000000
H    -1.524000000    -6.881000000    -2.387000000
H    -1.748000000    -5.629000000    -1.566000000
O    -3.608000000    -0.243000000     3.299000000
H    -2.742000000     0.165000000     3.306000000
H    -4.192000000     0.426000000     3.657000000
O     0.102000000     4.483000000     3.494000000
H     0.795000000     4.005000000     3.040000000
H    -0.695000000     4.270000000     3.007000000
O    -3.741000000    -5.171000000     0.448000000
H    -2.805000000    -5.297000000     0.607000000
H    -3.957000000    -4.363000000     0.914000000
O     4.659000000     2.125000000    -5.571000000
H     4.160000000     2.433000000    -4.814000000
H     5.243000000     1.456000000    -5.216000000
O    -2.736000000     7.198000000    -0.380000000
H    -1.997000000     6.694000000    -0.038000000
H    -3.172000000     6.601000000    -0.988000000
O     0.688000000     6.957000000    -4.058000000
H    -0.265000000     6.896000000    -3.999000000
H     1.004000000     6.597000000    -3.229000000
O    -4.355000000    -5.895000000    -3.713000000
H    -3.496000000    -5.817000000    -3.298000000
H    -4.795000000    -6.590000000    -3.224000000
O    -2.511000000    -5.023000000     4.368000000
H    -3.309000000    -4.668000000     4.760000000
H    -2.690000000    -5.033000000     3.428000000
O     2.580000000     2.439000000     4.680000000
H     2.361000000     2.607000000     3.763000000
H     2.796000000     3.301000000     5.036000000
O    -7.274000000    -2.920000000     1.250000000
H    -7.748000000    -2.114000000     1.458000000
H    -6.402000000    -2.624000000     0.991000000
