161
-3050.29861
C     0.106000000     1.275000000    -0.668000000
H     0.145000000     2.247000000    -1.152000000
C     0.215000000     0.065000000    -1.352000000
H     0.539000000     0.076000000    -2.390000000
C     0.113000000    -1.079000000    -0.604000000
C     0.358000000    -2.438000000    -1.180000000
H    -0.525000000    -3.074000000    -1.095000000
H     0.779000000    -2.371000000    -2.185000000
H     1.149000000    -2.970000000    -0.647000000
C    -0.246000000    -1.031000000     0.762000000
H    -0.515000000    -1.912000000     1.339000000
C    -0.303000000     0.170000000     1.410000000
H    -0.599000000     0.302000000     2.447000000
C    -0.182000000     1.369000000     0.648000000
C    -0.367000000     2.723000000     1.305000000
O    -0.846000000     2.921000000     2.420000000
O     0.181000000     3.720000000     0.934000000
O    -1.260000000    -4.295000000     3.419000000
H    -1.950000000    -3.634000000     3.464000000
H    -0.450000000    -3.791000000     3.337000000
O     3.879000000    -7.274000000    -1.117000000
H     3.793000000    -8.016000000    -0.518000000
H     3.376000000    -6.572000000    -0.703000000
O     1.909000000    -5.842000000     0.541000000
H     1.128000000    -6.226000000     0.940000000
H     2.436000000    -5.546000000     1.284000000
O     3.715000000    -2.075000000     3.870000000
H     3.323000000    -1.623000000     3.123000000
H     4.620000000    -2.239000000     3.603000000
O    -2.560000000    -0.043000000     5.450000000
H    -2.453000000     0.748000000     5.979000000
H    -2.613000000     0.277000000     4.550000000
O     2.796000000    -0.368000000     1.990000000
H     1.958000000    -0.517000000     1.552000000
H     3.453000000    -0.623000000     1.342000000
O     1.449000000    -4.681000000    -4.351000000
H     1.642000000    -5.227000000    -3.589000000
H     2.137000000    -4.016000000    -4.350000000
O    -4.138000000    -0.896000000     1.205000000
H    -3.763000000    -1.775000000     1.274000000
H    -3.858000000    -0.584000000     0.345000000
O     2.534000000     3.805000000     1.661000000
H     1.616000000     3.751000000     1.397000000
H     2.897000000     2.946000000     1.443000000
O     4.625000000     2.066000000    -2.773000000
H     4.671000000     1.973000000    -1.822000000
H     5.332000000     2.674000000    -2.989000000
O    -4.498000000     2.552000000    -1.864000000
H    -4.183000000     1.969000000    -1.172000000
H    -3.702000000     2.905000000    -2.260000000
O    -3.202000000     0.140000000    -1.020000000
H    -3.266000000    -0.023000000    -1.961000000
H    -2.276000000     0.012000000    -0.818000000
O    -1.688000000    -4.183000000    -4.757000000
H    -0.870000000    -4.476000000    -4.355000000
H    -2.232000000    -3.908000000    -4.019000000
O     3.328000000     5.963000000    -0.066000000
H     3.047000000     5.317000000     0.582000000
H     4.163000000     5.628000000    -0.392000000
O    -2.073000000     2.085000000     7.075000000
H    -2.332000000     2.970000000     6.820000000
H    -1.371000000     2.215000000     7.713000000
O    -2.897000000     1.279000000     2.791000000
H    -2.163000000     1.743000000     2.387000000
H    -3.470000000     1.054000000     2.058000000
O     1.444000000    -6.129000000    -2.071000000
H     1.460000000    -5.799000000    -1.173000000
H     2.018000000    -6.895000000    -2.055000000
O     4.388000000     5.385000000     3.207000000
H     4.351000000     4.946000000     4.057000000
H     3.769000000     4.902000000     2.661000000
O    -0.589000000     8.269000000     0.813000000
H    -0.142000000     9.115000000     0.831000000
H    -0.355000000     7.892000000    -0.035000000
O    -2.146000000     3.883000000    -2.723000000
H    -2.469000000     4.681000000    -3.141000000
H    -1.662000000     4.192000000    -1.957000000
O    -1.119000000     5.385000000    -0.633000000
H    -1.910000000     5.766000000    -0.251000000
H    -0.668000000     4.979000000     0.107000000
O     0.481000000     6.065000000     2.408000000
H     0.078000000     6.712000000     1.829000000
H     0.358000000     5.230000000     1.957000000
O    -0.666000000     0.552000000    -6.270000000
H    -0.770000000     1.235000000    -5.608000000
H     0.281000000     0.454000000    -6.366000000
O     2.548000000    -0.218000000    -5.647000000
H     2.982000000    -0.269000000    -6.499000000
H     3.222000000    -0.479000000    -5.019000000
O    -3.005000000     0.294000000    -3.944000000
H    -2.398000000     1.022000000    -4.076000000
H    -2.687000000    -0.393000000    -4.530000000
O    -0.546000000    -1.789000000     4.295000000
H    -1.119000000    -1.036000000     4.440000000
H     0.028000000    -1.804000000     5.060000000
O    -0.449000000    -6.419000000     1.692000000
H    -1.016000000    -7.185000000     1.782000000
H    -0.736000000    -5.826000000     2.387000000
O     4.649000000    -1.189000000     0.400000000
H     5.285000000    -1.812000000     0.752000000
H     5.079000000    -0.817000000    -0.370000000
O    -3.351000000     6.565000000     0.684000000
H    -3.283000000     7.394000000     1.157000000
H    -4.231000000     6.246000000     0.884000000
O    -5.469000000    -2.601000000    -1.114000000
H    -4.865000000    -2.881000000    -0.426000000
H    -6.000000000    -1.918000000    -0.705000000
O    -0.450000000     2.128000000    -4.349000000
H     0.443000000     2.472000000    -4.326000000
H    -0.976000000     2.797000000    -3.910000000
O     1.100000000    -0.403000000     5.888000000
H     0.718000000     0.403000000     5.541000000
H     1.937000000    -0.487000000     5.431000000
O     2.290000000     2.909000000    -4.013000000
H     3.203000000     2.636000000    -3.918000000
H     2.055000000     3.262000000    -3.155000000
O    -3.759000000    -4.191000000    -2.813000000
H    -4.389000000    -3.629000000    -2.363000000
H    -4.243000000    -4.544000000    -3.560000000
O     1.878000000     4.446000000    -1.771000000
H     2.567000000     4.792000000    -1.204000000
H     1.083000000     4.495000000    -1.240000000
O     0.963000000    -2.255000000    -7.201000000
H     0.628000000    -3.012000000    -6.722000000
H     1.422000000    -1.737000000    -6.539000000
O    -3.568000000    -5.780000000     0.428000000
H    -3.769000000    -6.251000000    -0.380000000
H    -2.613000000    -5.706000000     0.431000000
O     2.975000000     1.067000000     4.360000000
H     2.949000000     0.535000000     3.564000000
H     2.258000000     1.693000000     4.252000000
O     0.793000000     5.207000000     5.294000000
H     0.676000000     5.447000000     4.375000000
H     1.584000000     4.667000000     5.302000000
O    -1.459000000    -7.505000000    -1.800000000
H    -1.538000000    -7.601000000    -2.749000000
H    -0.835000000    -6.789000000    -1.683000000
O    -2.610000000    -1.703000000    -5.944000000
H    -1.755000000    -1.283000000    -6.041000000
H    -2.409000000    -2.630000000    -5.819000000
O     1.484000000    -4.027000000     3.588000000
H     2.212000000    -4.443000000     3.127000000
H     1.753000000    -3.114000000     3.688000000
O    -2.115000000     4.838000000     3.796000000
H    -1.758000000     4.183000000     3.197000000
H    -1.668000000     5.650000000     3.558000000
O    -4.047000000    -3.522000000     1.792000000
H    -3.987000000    -4.169000000     1.089000000
H    -4.414000000    -4.005000000     2.532000000
O    -4.327000000     3.560000000     2.657000000
H    -3.688000000     3.937000000     3.260000000
H    -4.304000000     2.620000000     2.840000000
O     4.226000000    -0.802000000    -3.505000000
H     4.039000000     0.056000000    -3.124000000
H     4.618000000    -1.302000000    -2.789000000
O     0.334000000     7.642000000    -1.955000000
H     0.546000000     7.712000000    -2.886000000
H     0.129000000     6.716000000    -1.825000000
O     0.382000000     2.143000000     4.475000000
H    -0.110000000     2.268000000     3.664000000
H     0.569000000     3.031000000     4.781000000
