161
-3057.93072
C     1.321000000     0.604000000     0.401000000
H     2.363000000     0.799000000     0.643000000
C     1.132000000    -0.672000000    -0.129000000
H     1.956000000    -1.378000000    -0.191000000
C    -0.121000000    -1.072000000    -0.510000000
C    -0.360000000    -2.505000000    -0.830000000
H    -0.431000000    -2.698000000    -1.903000000
H     0.358000000    -3.202000000    -0.392000000
H    -1.289000000    -2.839000000    -0.363000000
C    -1.240000000    -0.260000000    -0.433000000
H    -2.236000000    -0.673000000    -0.574000000
C    -1.088000000     1.020000000     0.068000000
H    -1.913000000     1.725000000     0.134000000
C     0.157000000     1.447000000     0.499000000
C     0.385000000     2.836000000     1.116000000
O    -0.499000000     3.658000000     1.046000000
O     1.504000000     3.217000000     1.417000000
O     2.624000000    -1.010000000    -3.264000000
H     3.318000000    -0.417000000    -3.550000000
H     2.920000000    -1.334000000    -2.414000000
O     4.070000000     0.833000000     3.112000000
H     3.166000000     0.640000000     3.359000000
H     4.598000000     0.424000000     3.798000000
O     2.099000000     4.587000000     3.920000000
H     1.275000000     5.070000000     3.856000000
H     1.992000000     3.849000000     3.320000000
O    -4.184000000    -6.721000000    -1.427000000
H    -3.722000000    -6.530000000    -0.611000000
H    -4.964000000    -7.205000000    -1.153000000
O    -1.936000000    -5.936000000    -3.507000000
H    -2.113000000    -6.553000000    -4.217000000
H    -2.653000000    -6.072000000    -2.887000000
O    -3.124000000     7.187000000    -0.075000000
H    -2.224000000     6.866000000    -0.025000000
H    -3.086000000     7.912000000    -0.698000000
O     2.672000000    -3.825000000     3.261000000
H     2.968000000    -3.149000000     3.871000000
H     3.237000000    -3.721000000     2.495000000
O     4.210000000     3.219000000     1.299000000
H     3.338000000     3.062000000     0.935000000
H     4.071000000     3.256000000     2.245000000
O    -2.737000000     4.300000000     5.657000000
H    -3.518000000     4.192000000     5.114000000
H    -2.016000000     4.358000000     5.030000000
O     4.494000000    -3.598000000     1.453000000
H     5.260000000    -3.139000000     1.109000000
H     4.848000000    -4.398000000     1.841000000
O     4.795000000     4.834000000    -0.995000000
H     5.623000000     5.282000000    -1.169000000
H     4.904000000     4.460000000    -0.121000000
O    -6.047000000    -4.184000000    -1.787000000
H    -5.182000000    -4.163000000    -1.377000000
H    -6.348000000    -3.276000000    -1.757000000
O     0.080000000     2.901000000    -3.912000000
H    -0.022000000     1.979000000    -3.677000000
H    -0.487000000     3.368000000    -3.299000000
O     1.573000000    -6.228000000     3.430000000
H     2.024000000    -5.398000000     3.584000000
H     1.511000000    -6.294000000     2.477000000
O     1.051000000    -3.164000000    -4.202000000
H     1.522000000    -3.463000000    -4.979000000
H     1.622000000    -2.499000000    -3.817000000
O    -0.903000000     4.158000000     3.731000000
H    -0.649000000     3.838000000     2.865000000
H    -0.701000000     5.094000000     3.709000000
O    -1.256000000    -5.419000000     0.593000000
H    -0.969000000    -4.910000000     1.351000000
H    -0.446000000    -5.741000000     0.200000000
O     4.087000000     2.879000000     5.417000000
H     4.877000000     3.171000000     4.961000000
H     3.443000000     3.565000000     5.243000000
O    -0.228000000    -3.693000000     2.719000000
H     0.701000000    -3.482000000     2.818000000
H    -0.511000000    -3.943000000     3.599000000
O     6.092000000    -1.181000000    -0.901000000
H     5.859000000    -0.382000000    -0.429000000
H     6.342000000    -1.800000000    -0.215000000
O     6.083000000    -1.247000000     3.002000000
H     6.074000000    -0.599000000     2.297000000
H     6.049000000    -0.728000000     3.805000000
O     0.291000000     0.322000000    -2.988000000
H     0.201000000     0.534000000    -2.059000000
H     1.105000000    -0.179000000    -3.041000000
O    -4.660000000     3.222000000    -2.024000000
H    -5.210000000     2.661000000    -2.571000000
H    -4.501000000     2.705000000    -1.235000000
O    -1.876000000    -0.985000000    -6.567000000
H    -2.270000000    -0.954000000    -5.695000000
H    -1.000000000    -0.619000000    -6.446000000
O     1.641000000    -5.771000000     0.000000000
H     1.318000000    -5.232000000    -0.722000000
H     2.510000000    -6.054000000    -0.282000000
O     0.671000000    -5.238000000    -2.366000000
H    -0.153000000    -5.530000000    -2.756000000
H     0.852000000    -4.399000000    -2.790000000
O     5.803000000     0.936000000     0.652000000
H     6.208000000     1.768000000     0.406000000
H     5.323000000     1.132000000     1.456000000
O    -1.728000000     3.644000000    -2.080000000
H    -2.600000000     3.254000000    -2.024000000
H    -1.623000000     4.114000000    -1.252000000
O    -2.965000000     0.936000000     2.553000000
H    -2.078000000     0.615000000     2.715000000
H    -3.436000000     0.764000000     3.368000000
O    -3.379000000    -6.526000000     2.393000000
H    -2.952000000    -6.689000000     1.551000000
H    -4.002000000    -7.246000000     2.488000000
O    -3.572000000    -2.124000000     1.950000000
H    -2.940000000    -1.490000000     1.610000000
H    -3.573000000    -1.975000000     2.896000000
O     2.191000000     5.450000000     0.249000000
H     1.950000000     4.583000000     0.574000000
H     3.082000000     5.342000000    -0.083000000
O     4.794000000     1.967000000    -2.121000000
H     5.654000000     2.379000000    -2.209000000
H     4.177000000     2.698000000    -2.121000000
O    -3.912000000    -2.166000000    -2.922000000
H    -3.847000000    -2.688000000    -2.122000000
H    -3.187000000    -2.472000000    -3.467000000
O     1.838000000     7.401000000     2.268000000
H     1.962000000     6.752000000     1.575000000
H     2.458000000     7.144000000     2.951000000
O    -0.443000000     6.810000000     3.425000000
H     0.113000000     7.146000000     2.721000000
H     0.022000000     7.042000000     4.229000000
O     2.706000000    -7.128000000    -3.440000000
H     2.258000000    -7.931000000    -3.705000000
H     2.027000000    -6.604000000    -3.015000000
O    -3.683000000    -3.622000000    -0.249000000
H    -3.709000000    -3.259000000     0.636000000
H    -2.983000000    -4.274000000    -0.220000000
O    -1.824000000    -3.410000000    -4.254000000
H    -1.936000000    -4.355000000    -4.149000000
H    -0.877000000    -3.277000000    -4.230000000
O    -3.165000000     4.406000000     0.930000000
H    -2.238000000     4.239000000     1.100000000
H    -3.186000000     5.288000000     0.559000000
O    -1.119000000    -0.951000000     3.256000000
H    -1.307000000    -1.474000000     4.035000000
H    -0.717000000    -1.568000000     2.644000000
O    -4.367000000     1.886000000     0.414000000
H    -4.462000000     2.797000000     0.691000000
H    -3.727000000     1.516000000     1.022000000
O    -0.781000000     5.969000000    -0.361000000
H    -0.564000000     5.189000000     0.149000000
H     0.063000000     6.295000000    -0.671000000
O    -2.442000000    -0.064000000    -3.746000000
H    -2.939000000    -0.757000000    -3.311000000
H    -1.599000000    -0.054000000    -3.293000000
O     4.110000000    -3.372000000    -1.272000000
H     4.096000000    -3.699000000    -0.373000000
H     4.774000000    -2.682000000    -1.265000000
O    -3.528000000     7.281000000     2.710000000
H    -2.735000000     6.792000000     2.931000000
H    -3.507000000     7.353000000     1.756000000
O    -4.464000000     3.957000000     3.738000000
H    -4.775000000     3.053000000     3.793000000
H    -4.139000000     4.044000000     2.842000000
O    -5.771000000     0.216000000    -1.265000000
H    -5.666000000     0.997000000    -0.721000000
H    -5.300000000    -0.470000000    -0.792000000
