161
-3033.93822
C    -0.519000000     0.940000000     0.973000000
H    -0.916000000     1.484000000     1.826000000
C     0.335000000    -0.136000000     1.242000000
H     0.551000000    -0.340000000     2.287000000
C     0.716000000    -0.971000000     0.236000000
C     1.612000000    -2.137000000     0.512000000
H     1.107000000    -2.860000000     1.155000000
H     2.080000000    -2.546000000    -0.386000000
H     2.407000000    -1.758000000     1.158000000
C     0.354000000    -0.697000000    -1.093000000
H     0.764000000    -1.378000000    -1.835000000
C    -0.513000000     0.377000000    -1.298000000
H    -0.879000000     0.651000000    -2.284000000
C    -0.900000000     1.245000000    -0.334000000
C    -1.868000000     2.366000000    -0.630000000
O    -2.220000000     2.626000000    -1.805000000
O    -2.112000000     3.128000000     0.282000000
O    -3.114000000    -5.137000000     0.054000000
H    -2.778000000    -4.245000000    -0.035000000
H    -3.993000000    -5.101000000    -0.323000000
O     1.499000000    -1.483000000     7.100000000
H     0.807000000    -1.966000000     7.552000000
H     1.033000000    -0.838000000     6.568000000
O     7.322000000    -3.832000000     2.370000000
H     6.675000000    -3.153000000     2.177000000
H     7.040000000    -4.200000000     3.208000000
O     5.852000000     0.579000000     4.544000000
H     5.177000000     0.673000000     3.872000000
H     5.380000000     0.256000000     5.312000000
O     1.033000000     5.356000000    -4.611000000
H     0.348000000     5.439000000    -5.274000000
H     0.586000000     4.983000000    -3.851000000
O    -1.782000000     3.136000000     3.069000000
H    -1.778000000     3.071000000     2.114000000
H    -2.658000000     3.458000000     3.283000000
O    -1.659000000     6.524000000     2.700000000
H    -1.830000000     6.950000000     1.860000000
H    -2.418000000     5.958000000     2.840000000
O    -3.424000000    -3.508000000    -3.010000000
H    -4.293000000    -3.139000000    -3.171000000
H    -3.022000000    -2.909000000    -2.382000000
O    -3.200000000     5.207000000    -2.279000000
H    -2.809000000     4.336000000    -2.350000000
H    -2.692000000     5.748000000    -2.885000000
O     3.954000000     0.098000000    -2.236000000
H     4.307000000     0.924000000    -1.906000000
H     3.298000000     0.359000000    -2.882000000
O     5.854000000    -1.265000000    -0.489000000
H     5.076000000    -1.151000000    -1.036000000
H     6.587000000    -1.211000000    -1.101000000
O     0.166000000     0.139000000     5.511000000
H    -0.734000000     0.356000000     5.753000000
H     0.661000000     0.939000000     5.688000000
O     2.561000000     1.847000000     0.386000000
H     2.807000000     1.807000000    -0.538000000
H     1.978000000     1.098000000     0.512000000
O    -0.207000000    -2.859000000    -4.081000000
H     0.629000000    -2.604000000    -3.689000000
H    -0.432000000    -3.683000000    -3.648000000
O    -3.811000000    -0.680000000     3.151000000
H    -4.657000000    -0.243000000     3.243000000
H    -3.291000000    -0.084000000     2.611000000
O     2.782000000    -5.007000000     1.433000000
H     2.234000000    -4.386000000     1.913000000
H     3.370000000    -5.370000000     2.095000000
O     1.908000000     4.518000000     1.344000000
H     1.163000000     4.898000000     0.880000000
H     2.104000000     3.713000000     0.865000000
O     1.551000000    -4.419000000     4.901000000
H     2.386000000    -3.979000000     4.739000000
H     0.910000000    -3.709000000     4.938000000
O     2.553000000    -2.076000000    -3.689000000
H     3.016000000    -2.672000000    -4.278000000
H     3.248000000    -1.626000000    -3.210000000
O    -6.944000000     5.402000000     1.754000000
H    -6.666000000     6.134000000     2.305000000
H    -6.128000000     5.020000000     1.432000000
O     3.551000000     1.737000000     3.412000000
H     3.071000000     1.904000000     2.601000000
H     2.911000000     1.899000000     4.106000000
O     1.325000000    -5.916000000    -2.173000000
H     1.127000000    -6.168000000    -1.271000000
H     0.523000000    -5.497000000    -2.486000000
O    -0.767000000    -6.599000000     0.259000000
H    -1.586000000    -6.261000000    -0.102000000
H    -0.820000000    -6.406000000     1.195000000
O     2.574000000    -0.005000000    -5.808000000
H     2.068000000    -0.509000000    -5.171000000
H     2.439000000     0.908000000    -5.553000000
O    -0.870000000     4.148000000     6.052000000
H    -0.892000000     3.953000000     5.115000000
H    -0.042000000     4.611000000     6.181000000
O    -1.281000000    -0.524000000    -5.250000000
H    -0.986000000    -1.301000000    -4.775000000
H    -2.163000000    -0.747000000    -5.548000000
O    -5.333000000     2.671000000     2.070000000
H    -4.574000000     2.936000000     2.590000000
H    -5.213000000     3.112000000     1.229000000
O     0.392000000     1.385000000    -4.861000000
H    -0.371000000     0.844000000    -5.060000000
H     0.093000000     1.977000000    -4.171000000
O    -4.635000000     3.967000000    -0.114000000
H    -3.707000000     4.058000000     0.101000000
H    -4.645000000     3.776000000    -1.052000000
O    -1.231000000    -5.035000000    -2.705000000
H    -1.933000000    -4.432000000    -2.948000000
H    -1.623000000    -5.904000000    -2.785000000
O    -2.457000000    -2.351000000    -0.485000000
H    -3.169000000    -1.896000000    -0.036000000
H    -1.727000000    -1.732000000    -0.465000000
O     2.380000000     2.342000000    -2.686000000
H     1.554000000     2.812000000    -2.577000000
H     2.636000000     2.514000000    -3.592000000
O     3.746000000    -2.665000000     4.426000000
H     3.621000000    -1.826000000     4.869000000
H     4.109000000    -2.433000000     3.571000000
O    -3.965000000     5.559000000     3.619000000
H    -3.261000000     5.743000000     4.240000000
H    -4.559000000     6.306000000     3.701000000
O    -0.637000000    -6.546000000     2.995000000
H    -0.935000000    -7.440000000     2.828000000
H     0.067000000    -6.644000000     3.636000000
O    -0.441000000     5.123000000    -0.108000000
H    -1.022000000     4.404000000     0.140000000
H    -0.919000000     5.914000000     0.141000000
O    -0.186000000     3.944000000    -2.648000000
H    -1.019000000     3.485000000    -2.543000000
H    -0.096000000     4.461000000    -1.847000000
O    -4.580000000     1.876000000    -2.915000000
H    -3.753000000     2.152000000    -2.519000000
H    -4.332000000     1.538000000    -3.776000000
O     2.078000000     2.332000000     5.814000000
H     1.876000000     3.105000000     6.342000000
H     2.451000000     1.708000000     6.437000000
O    -5.819000000     5.374000000    -3.097000000
H    -6.030000000     6.262000000    -3.385000000
H    -4.910000000     5.426000000    -2.804000000
O    -7.271000000     3.485000000    -0.958000000
H    -6.489000000     3.965000000    -0.686000000
H    -7.646000000     3.156000000    -0.142000000
O    -2.584000000    -3.190000000     3.089000000
H    -3.101000000    -2.394000000     3.212000000
H    -2.227000000    -3.111000000     2.205000000
O     4.079000000    -4.707000000    -1.380000000
H     3.800000000    -4.434000000    -0.506000000
H     3.325000000    -4.523000000    -1.940000000
O    -2.528000000     7.000000000    -0.185000000
H    -2.997000000     6.368000000    -0.729000000
H    -3.157000000     7.708000000    -0.043000000
O     0.941000000     6.162000000     3.540000000
H     1.238000000     5.413000000     3.023000000
H     0.064000000     6.350000000     3.206000000
O    -0.149000000    -2.416000000     4.848000000
H    -1.088000000    -2.576000000     4.945000000
H    -0.066000000    -1.463000000     4.854000000
O     5.162000000    -2.212000000     2.008000000
H     4.923000000    -2.429000000     1.107000000
H     5.330000000    -1.270000000     1.992000000
O    -3.953000000     1.308000000    -5.658000000
H    -3.168000000     1.792000000    -5.916000000
H    -4.530000000     1.365000000    -6.419000000
