161
-3035.98817
C    -0.521000000     1.304000000     0.549000000
H    -0.818000000     2.276000000     0.934000000
C     0.262000000     1.171000000    -0.581000000
H     0.623000000     2.074000000    -1.066000000
C     0.697000000    -0.038000000    -1.043000000
C     1.646000000    -0.301000000    -2.215000000
H     2.581000000     0.259000000    -2.158000000
H     1.903000000    -1.362000000    -2.169000000
H     1.064000000    -0.190000000    -3.133000000
C     0.255000000    -1.179000000    -0.353000000
H     0.543000000    -2.170000000    -0.692000000
C    -0.560000000    -1.040000000     0.798000000
H    -0.864000000    -1.942000000     1.323000000
C    -1.002000000     0.155000000     1.234000000
C    -1.724000000     0.318000000     2.547000000
O    -1.706000000    -0.606000000     3.289000000
O    -2.378000000     1.273000000     2.736000000
O    -4.182000000     4.585000000     1.704000000
H    -3.591000000     5.104000000     2.248000000
H    -4.899000000     4.344000000     2.291000000
O    -0.240000000     0.332000000     7.857000000
H    -0.643000000     0.829000000     8.568000000
H    -0.621000000     0.702000000     7.060000000
O    -2.256000000     3.531000000     4.175000000
H    -2.565000000     2.822000000     3.611000000
H    -1.303000000     3.439000000     4.177000000
O    -2.555000000     1.508000000    -4.389000000
H    -2.683000000     1.700000000    -3.460000000
H    -1.718000000     1.920000000    -4.606000000
O     2.121000000     0.822000000    -8.570000000
H     1.823000000     0.083000000    -9.101000000
H     2.141000000     0.481000000    -7.675000000
O     2.563000000    -3.349000000     4.047000000
H     1.935000000    -2.674000000     4.304000000
H     2.303000000    -3.592000000     3.158000000
O    -3.100000000     6.135000000     3.823000000
H    -3.298000000     6.531000000     4.672000000
H    -2.935000000     5.213000000     4.022000000
O     6.055000000     3.336000000    -2.571000000
H     5.707000000     4.150000000    -2.935000000
H     6.364000000     3.577000000    -1.698000000
O     3.532000000     3.336000000    -1.271000000
H     3.537000000     2.556000000    -1.824000000
H     4.259000000     3.203000000    -0.663000000
O    -0.727000000    -2.625000000     4.563000000
H    -1.143000000    -3.404000000     4.193000000
H    -1.075000000    -1.899000000     4.046000000
O    -6.945000000     1.192000000     3.858000000
H    -7.509000000     1.679000000     3.258000000
H    -6.330000000     0.730000000     3.288000000
O    -2.636000000    -5.493000000    -1.091000000
H    -3.487000000    -5.616000000    -0.669000000
H    -2.664000000    -4.598000000    -1.428000000
O    -4.101000000    -0.805000000    -0.044000000
H    -5.016000000    -0.536000000     0.034000000
H    -3.714000000    -0.590000000     0.805000000
O    -4.647000000     0.550000000     7.339000000
H    -5.369000000     0.300000000     6.762000000
H    -4.050000000    -0.197000000     7.314000000
O     1.452000000    -4.993000000     1.185000000
H     1.839000000    -4.548000000     0.430000000
H     1.929000000    -5.821000000     1.245000000
O     4.404000000     2.186000000     1.603000000
H     3.675000000     2.413000000     2.180000000
H     4.676000000     1.315000000     1.892000000
O    -2.478000000     2.450000000    -1.596000000
H    -1.904000000     3.179000000    -1.831000000
H    -1.881000000     1.750000000    -1.333000000
O     1.407000000     4.985000000    -1.582000000
H     2.110000000     4.336000000    -1.572000000
H     1.485000000     5.409000000    -2.437000000
O    -2.780000000    -1.654000000     6.601000000
H    -2.190000000    -1.986000000     7.278000000
H    -2.348000000    -1.880000000     5.777000000
O     5.592000000    -5.381000000    -2.245000000
H     5.506000000    -4.529000000    -2.672000000
H     5.749000000    -5.173000000    -1.324000000
O    -0.445000000     2.558000000    -7.524000000
H     0.228000000     2.227000000    -6.929000000
H    -0.980000000     1.791000000    -7.730000000
O     4.376000000    -3.778000000    -4.603000000
H     4.298000000    -2.842000000    -4.422000000
H     3.510000000    -4.033000000    -4.924000000
O     2.083000000     5.708000000     1.100000000
H     2.054000000     5.108000000     0.355000000
H     2.690000000     6.397000000     0.829000000
O     6.185000000     1.270000000    -4.391000000
H     6.119000000     1.818000000    -3.609000000
H     5.878000000     1.831000000    -5.103000000
O     5.334000000    -2.694000000    -1.556000000
H     5.430000000    -2.146000000    -0.777000000
H     4.603000000    -2.305000000    -2.034000000
O     2.494000000    -4.803000000    -1.638000000
H     1.800000000    -4.702000000    -2.290000000
H     3.291000000    -4.928000000    -2.154000000
O     5.068000000    -1.172000000    -4.023000000
H     5.432000000    -0.312000000    -4.231000000
H     5.793000000    -1.781000000    -4.163000000
O     0.339000000    -3.799000000     6.689000000
H     0.005000000    -3.380000000     5.896000000
H    -0.180000000    -3.419000000     7.398000000
O    -4.887000000     0.828000000     2.068000000
H    -4.978000000     1.312000000     1.247000000
H    -4.008000000     1.048000000     2.379000000
O     0.950000000     4.793000000     3.550000000
H     1.183000000     4.763000000     2.622000000
H     1.095000000     5.704000000     3.804000000
O     1.571000000    -0.746000000     4.470000000
H     1.881000000    -0.526000000     5.348000000
H     0.623000000    -0.622000000     4.513000000
O     2.431000000    -0.901000000     1.672000000
H     1.703000000    -0.694000000     1.087000000
H     2.016000000    -1.108000000     2.509000000
O    -1.760000000     0.761000000     5.757000000
H    -1.767000000     0.782000000     4.800000000
H    -2.248000000    -0.031000000     5.982000000
O     2.547000000     1.937000000     3.570000000
H     2.296000000     2.534000000     4.275000000
H     2.368000000     1.064000000     3.919000000
O    -0.761000000     3.681000000    -4.409000000
H    -0.845000000     4.421000000    -5.010000000
H     0.003000000     3.200000000    -4.727000000
O    -1.349000000     4.866000000    -2.026000000
H    -0.455000000     4.895000000    -1.686000000
H    -1.242000000     4.748000000    -2.970000000
O    -2.598000000    -2.754000000    -1.836000000
H    -1.929000000    -2.205000000    -1.427000000
H    -3.423000000    -2.444000000    -1.463000000
O    -4.246000000    -4.133000000     1.610000000
H    -4.439000000    -3.321000000     2.079000000
H    -3.422000000    -4.438000000     1.988000000
O    -4.211000000     3.336000000     6.650000000
H    -3.670000000     2.561000000     6.498000000
H    -3.602000000     4.071000000     6.577000000
O    -1.460000000    -4.769000000     2.761000000
H    -0.536000000    -4.671000000     2.532000000
H    -1.519000000    -5.640000000     3.154000000
O    -4.147000000    -1.774000000     3.225000000
H    -3.266000000    -1.474000000     3.448000000
H    -4.689000000    -0.987000000     3.275000000
O    -2.250000000     0.660000000    -6.921000000
H    -2.462000000     1.005000000    -6.053000000
H    -1.890000000    -0.211000000    -6.751000000
O    -0.013000000    -6.665000000    -0.531000000
H     0.381000000    -5.879000000    -0.154000000
H    -0.882000000    -6.383000000    -0.818000000
O     1.583000000     2.451000000    -5.500000000
H     2.223000000     3.124000000    -5.731000000
H     2.087000000     1.637000000    -5.480000000
O    -4.695000000     2.707000000     0.020000000
H    -4.001000000     2.556000000    -0.622000000
H    -4.364000000     3.420000000     0.566000000
O     3.228000000     0.219000000    -5.720000000
H     3.912000000     0.639000000    -6.241000000
H     3.699000000    -0.395000000    -5.156000000
O     4.938000000     0.844000000    -1.025000000
H     5.658000000     0.418000000    -0.561000000
H     4.506000000     1.379000000    -0.359000000
O     4.939000000    -1.853000000     1.391000000
H     5.502000000    -1.283000000     1.915000000
H     4.058000000    -1.504000000     1.521000000
