161
-3057.20806
C     0.489000000     0.780000000     1.160000000
H     0.795000000     1.389000000     2.007000000
C     1.146000000    -0.353000000     0.694000000
H     1.981000000    -0.862000000     1.169000000
C     0.605000000    -1.014000000    -0.412000000
C     1.278000000    -2.245000000    -1.055000000
H     1.090000000    -2.282000000    -2.130000000
H     2.352000000    -2.339000000    -0.882000000
H     0.760000000    -3.139000000    -0.701000000
C    -0.677000000    -0.615000000    -0.972000000
H    -1.168000000    -1.181000000    -1.759000000
C    -1.243000000     0.618000000    -0.504000000
H    -2.163000000     0.978000000    -0.956000000
C    -0.683000000     1.336000000     0.555000000
C    -1.360000000     2.581000000     1.133000000
O    -2.392000000     3.034000000     0.648000000
O    -0.806000000     3.313000000     2.007000000
O    -0.200000000    -0.706000000     3.925000000
H    -0.829000000    -0.027000000     3.680000000
H    -0.012000000    -0.537000000     4.848000000
O     1.931000000    -0.189000000    -5.858000000
H     2.219000000    -0.946000000    -6.368000000
H     2.696000000     0.055000000    -5.336000000
O    -0.064000000     1.604000000    -5.135000000
H     0.204000000     0.697000000    -5.284000000
H     0.162000000     1.773000000    -4.220000000
O     1.021000000     2.879000000     4.136000000
H     0.696000000     2.156000000     4.673000000
H     0.313000000     3.053000000     3.516000000
O    -1.056000000    -5.035000000    -1.164000000
H    -1.538000000    -5.105000000    -0.341000000
H    -1.723000000    -4.814000000    -1.814000000
O    -3.541000000     3.343000000    -3.275000000
H    -3.962000000     3.245000000    -2.421000000
H    -4.234000000     3.671000000    -3.847000000
O     2.924000000     0.564000000     3.786000000
H     2.203000000    -0.065000000     3.774000000
H     2.535000000     1.380000000     3.473000000
O     2.170000000    -2.732000000     4.698000000
H     2.974000000    -2.601000000     5.201000000
H     2.469000000    -2.865000000     3.798000000
O     5.435000000     2.791000000    -0.005000000
H     4.486000000     2.709000000    -0.098000000
H     5.557000000     3.591000000     0.505000000
O     5.401000000    -1.893000000     0.423000000
H     5.785000000    -1.118000000     0.834000000
H     5.786000000    -2.631000000     0.897000000
O    -6.285000000     1.823000000    -2.107000000
H    -5.759000000     2.551000000    -1.776000000
H    -6.236000000     1.159000000    -1.419000000
O    -5.757000000     6.018000000     0.224000000
H    -6.568000000     6.522000000     0.282000000
H    -5.189000000     6.543000000    -0.340000000
O     0.606000000     1.643000000    -2.632000000
H     0.037000000     1.289000000    -1.948000000
H     1.483000000     1.616000000    -2.251000000
O     3.117000000    -3.025000000     2.001000000
H     2.420000000    -3.576000000     1.644000000
H     3.571000000    -2.684000000     1.231000000
O     2.581000000    -6.880000000     0.479000000
H     2.091000000    -6.098000000     0.731000000
H     2.110000000    -7.225000000    -0.279000000
O     1.939000000    -4.783000000    -3.481000000
H     2.492000000    -4.703000000    -2.704000000
H     1.056000000    -4.590000000    -3.167000000
O    -3.690000000     6.133000000     2.247000000
H    -4.391000000     5.763000000     1.711000000
H    -3.236000000     6.740000000     1.663000000
O    -0.330000000    -3.384000000     3.026000000
H    -0.164000000    -2.477000000     3.283000000
H    -0.219000000    -3.886000000     3.833000000
O    -4.406000000    -3.223000000    -5.176000000
H    -3.881000000    -2.482000000    -5.479000000
H    -4.668000000    -3.674000000    -5.979000000
O     0.440000000     7.033000000    -2.074000000
H    -0.225000000     6.359000000    -1.931000000
H     1.251000000     6.641000000    -1.750000000
O     2.806000000     5.101000000     3.227000000
H     2.148000000     4.523000000     3.612000000
H     3.284000000     5.454000000     3.978000000
O    -2.599000000    -1.126000000     1.646000000
H    -2.660000000    -2.045000000     1.905000000
H    -1.863000000    -1.097000000     1.034000000
O    -3.177000000    -1.046000000    -6.204000000
H    -2.428000000    -0.451000000    -6.217000000
H    -3.940000000    -0.472000000    -6.274000000
O     5.356000000    -2.103000000    -3.942000000
H     5.447000000    -3.021000000    -4.197000000
H     6.229000000    -1.850000000    -3.641000000
O     2.842000000     1.544000000    -1.123000000
H     3.353000000     0.781000000    -1.394000000
H     2.212000000     1.198000000    -0.491000000
O    -1.414000000     4.706000000    -1.296000000
H    -1.678000000     4.028000000    -0.674000000
H    -1.587000000     4.323000000    -2.156000000
O     1.153000000    -4.804000000     1.095000000
H     0.559000000    -4.579000000     1.810000000
H     0.633000000    -4.676000000     0.302000000
O     0.599000000    -7.347000000    -1.911000000
H    -0.137000000    -7.954000000    -1.844000000
H     0.230000000    -6.495000000    -1.676000000
O     4.267000000    -0.534000000    -1.910000000
H     4.500000000    -1.027000000    -2.697000000
H     4.697000000    -1.005000000    -1.196000000
O     2.611000000     6.392000000    -0.972000000
H     1.996000000     6.181000000    -0.269000000
H     3.327000000     6.852000000    -0.534000000
O    -2.480000000     4.461000000     3.916000000
H    -3.036000000     5.168000000     3.587000000
H    -1.982000000     4.172000000     3.151000000
O    -2.695000000    -5.239000000     0.920000000
H    -2.587000000    -4.811000000     1.769000000
H    -3.243000000    -6.002000000     1.104000000
O     5.297000000    -4.315000000     2.943000000
H     5.411000000    -5.116000000     2.432000000
H     4.419000000    -4.008000000     2.716000000
O     3.709000000    -4.025000000    -6.111000000
H     3.163000000    -4.113000000    -5.330000000
H     3.122000000    -3.658000000    -6.773000000
O    -4.213000000     1.043000000     0.814000000
H    -3.729000000     0.371000000     1.295000000
H    -3.589000000     1.762000000     0.715000000
O    -2.190000000     4.384000000     6.627000000
H    -2.374000000     4.156000000     5.716000000
H    -1.962000000     5.313000000     6.600000000
O     1.174000000     6.127000000     1.300000000
H     0.589000000     5.383000000     1.159000000
H     1.571000000     5.962000000     2.155000000
O    -2.977000000    -3.868000000    -2.618000000
H    -3.073000000    -2.985000000    -2.262000000
H    -3.487000000    -3.856000000    -3.428000000
O    -5.931000000     0.821000000     3.268000000
H    -5.095000000     1.197000000     3.545000000
H    -5.886000000     0.816000000     2.312000000
O    -3.824000000    -0.836000000    -2.159000000
H    -3.262000000    -0.339000000    -2.754000000
H    -3.883000000    -0.291000000    -1.374000000
O    -4.691000000     3.617000000    -0.823000000
H    -3.995000000     3.416000000    -0.198000000
H    -5.228000000     4.275000000    -0.381000000
O    -3.212000000     1.606000000     3.925000000
H    -3.123000000     1.322000000     4.835000000
H    -3.038000000     2.547000000     3.950000000
O    -6.927000000     0.844000000     0.322000000
H    -6.052000000     1.030000000     0.662000000
H    -7.521000000     1.265000000     0.944000000
O    -2.437000000     0.939000000    -3.682000000
H    -2.914000000     1.760000000    -3.559000000
H    -1.562000000     1.211000000    -3.960000000
O     5.213000000    -0.708000000     4.741000000
H     4.640000000    -0.206000000     4.160000000
H     5.115000000    -0.288000000     5.595000000
O     4.175000000    -4.628000000    -1.465000000
H     4.874000000    -4.065000000    -1.131000000
H     4.529000000    -5.514000000    -1.397000000
O    -0.681000000    -7.234000000     1.720000000
H    -1.066000000    -6.542000000     1.182000000
H    -1.420000000    -7.798000000     1.950000000
O    -6.454000000    -1.385000000    -3.104000000
H    -5.953000000    -1.021000000    -2.374000000
H    -5.858000000    -2.013000000    -3.513000000
