161
-3052.47627
C    -0.515000000     1.260000000     0.306000000
H    -0.771000000     2.291000000     0.534000000
C     0.276000000     0.502000000     1.209000000
H     0.610000000     0.907000000     2.161000000
C     0.594000000    -0.713000000     0.833000000
C     1.424000000    -1.557000000     1.645000000
H     1.265000000    -1.595000000     2.724000000
H     1.264000000    -2.584000000     1.310000000
H     2.487000000    -1.350000000     1.502000000
C     0.177000000    -1.201000000    -0.446000000
H     0.395000000    -2.218000000    -0.763000000
C    -0.442000000    -0.369000000    -1.345000000
H    -0.698000000    -0.619000000    -2.371000000
C    -0.732000000     0.899000000    -0.982000000
C    -1.552000000     1.871000000    -1.877000000
O    -1.784000000     1.569000000    -3.017000000
O    -2.001000000     2.899000000    -1.418000000
O     1.019000000    -5.255000000    -1.234000000
H     0.862000000    -5.107000000    -2.167000000
H     0.207000000    -4.983000000    -0.808000000
O    -4.258000000     6.982000000    -0.801000000
H    -4.266000000     6.736000000     0.124000000
H    -3.337000000     6.931000000    -1.054000000
O     0.118000000     2.730000000     3.948000000
H     0.055000000     1.866000000     4.355000000
H     0.844000000     3.157000000     4.402000000
O     3.195000000     4.099000000     0.380000000
H     3.033000000     3.420000000    -0.274000000
H     2.332000000     4.284000000     0.751000000
O    -1.913000000     6.547000000    -1.900000000
H    -1.538000000     5.796000000    -2.360000000
H    -2.050000000     7.203000000    -2.583000000
O     3.471000000    -4.824000000    -0.086000000
H     3.499000000    -4.605000000     0.845000000
H     2.540000000    -4.796000000    -0.310000000
O     2.318000000    -2.449000000     7.159000000
H     2.358000000    -2.724000000     6.243000000
H     1.382000000    -2.398000000     7.352000000
O    -3.370000000    -0.365000000    -3.841000000
H    -2.960000000     0.358000000    -3.366000000
H    -3.420000000    -0.059000000    -4.747000000
O     0.760000000     4.798000000     2.353000000
H     0.003000000     4.850000000     1.770000000
H     0.641000000     3.975000000     2.827000000
O     0.615000000     0.501000000     5.414000000
H     0.279000000     0.263000000     6.278000000
H     1.511000000     0.164000000     5.405000000
O    -1.053000000     4.911000000    -6.217000000
H    -0.909000000     4.189000000    -6.829000000
H    -2.000000000     5.047000000    -6.226000000
O     6.461000000    -2.087000000    -1.443000000
H     5.930000000    -1.658000000    -0.772000000
H     5.847000000    -2.652000000    -1.910000000
O    -2.778000000     1.935000000     3.298000000
H    -1.933000000     2.337000000     3.499000000
H    -2.748000000     1.084000000     3.735000000
O    -0.354000000     4.862000000    -3.259000000
H    -0.156000000     4.885000000    -4.195000000
H    -0.391000000     3.930000000    -3.045000000
O     5.228000000    -1.430000000     0.891000000
H     4.753000000    -0.599000000     0.920000000
H     4.653000000    -2.050000000     1.340000000
O    -3.890000000    -2.652000000    -1.983000000
H    -3.621000000    -1.888000000    -2.493000000
H    -3.938000000    -3.362000000    -2.622000000
O    -1.697000000    -4.691000000    -0.498000000
H    -2.119000000    -4.950000000    -1.317000000
H    -2.300000000    -4.060000000    -0.105000000
O     1.405000000    -4.439000000    -4.119000000
H     2.077000000    -5.120000000    -4.136000000
H     1.826000000    -3.698000000    -3.683000000
O    -5.580000000     2.063000000    -0.971000000
H    -5.632000000     1.817000000    -1.895000000
H    -4.978000000     2.807000000    -0.955000000
O    -1.073000000    -5.247000000    -5.163000000
H    -1.537000000    -4.684000000    -4.542000000
H    -0.163000000    -4.955000000    -5.115000000
O     4.258000000    -3.016000000     3.016000000
H     3.562000000    -3.433000000     3.524000000
H     5.068000000    -3.373000000     3.381000000
O    -3.319000000     0.806000000    -6.301000000
H    -2.485000000     0.373000000    -6.484000000
H    -3.072000000     1.649000000    -5.920000000
O    -2.560000000    -0.868000000     1.801000000
H    -3.414000000    -0.486000000     1.600000000
H    -2.017000000    -0.655000000     1.041000000
O     3.567000000     2.630000000    -1.973000000
H     3.256000000     2.313000000    -2.820000000
H     4.515000000     2.499000000    -2.001000000
O    -4.093000000     4.289000000    -2.129000000
H    -4.051000000     5.140000000    -1.694000000
H    -3.347000000     3.803000000    -1.778000000
O     3.771000000    -4.777000000    -2.798000000
H     3.749000000    -4.814000000    -1.842000000
H     3.930000000    -5.682000000    -3.069000000
O    -0.418000000    -5.417000000     1.687000000
H    -0.952000000    -6.033000000     2.189000000
H    -0.998000000    -5.111000000     0.989000000
O     7.617000000    -2.995000000     1.600000000
H     6.891000000    -2.420000000     1.357000000
H     7.714000000    -2.872000000     2.544000000
O    -1.524000000     6.241000000     3.306000000
H    -1.232000000     7.153000000     3.302000000
H    -0.718000000     5.732000000     3.390000000
O    -2.565000000    -0.752000000     5.247000000
H    -2.175000000    -1.586000000     4.985000000
H    -2.744000000    -0.855000000     6.182000000
O     2.137000000    -7.567000000     1.034000000
H     1.360000000    -7.106000000     0.715000000
H     2.680000000    -7.687000000     0.255000000
O     2.233000000    -1.684000000    -3.280000000
H     2.763000000    -1.804000000    -2.492000000
H     1.975000000    -0.763000000    -3.257000000
O    -5.311000000     3.356000000    -4.560000000
H    -4.929000000     3.531000000    -3.700000000
H    -5.531000000     2.425000000    -4.539000000
O    -4.412000000    -3.158000000     0.601000000
H    -4.665000000    -2.322000000     0.991000000
H    -4.130000000    -2.934000000    -0.285000000
O     3.052000000     1.310000000    -4.375000000
H     3.432000000     1.325000000    -5.253000000
H     2.124000000     1.501000000    -4.512000000
O    -4.727000000     0.012000000     0.602000000
H    -5.535000000    -0.475000000     0.760000000
H    -5.017000000     0.842000000     0.224000000
O    -0.826000000     5.129000000     0.214000000
H    -1.036000000     5.987000000    -0.155000000
H    -1.158000000     4.504000000    -0.430000000
O    -0.802000000    -0.089000000    -6.611000000
H    -0.305000000     0.534000000    -7.141000000
H    -0.182000000    -0.793000000    -6.424000000
O    -3.947000000     3.254000000     0.796000000
H    -3.122000000     3.107000000     0.333000000
H    -3.911000000     2.656000000     1.543000000
O    -3.879000000     6.170000000     1.837000000
H    -3.723000000     5.282000000     1.516000000
H    -3.117000000     6.366000000     2.382000000
O     0.241000000     1.473000000    -4.531000000
H    -0.505000000     1.638000000    -3.953000000
H    -0.096000000     0.866000000    -5.190000000
O     1.140000000    -3.414000000     5.043000000
H     0.656000000    -4.231000000     5.162000000
H     0.553000000    -2.861000000     4.527000000
O     0.924000000    -2.335000000    -6.132000000
H     1.235000000    -2.450000000    -5.234000000
H     1.280000000    -3.086000000    -6.607000000
O     2.852000000    -5.912000000     3.425000000
H     2.124000000    -5.781000000     4.033000000
H     2.484000000    -6.449000000     2.723000000
O     2.247000000     5.759000000    -2.435000000
H     1.380000000     5.432000000    -2.673000000
H     2.752000000     4.972000000    -2.231000000
O    -2.320000000    -3.188000000     3.649000000
H    -2.424000000    -2.367000000     3.168000000
H    -2.291000000    -3.862000000     2.970000000
O     3.994000000    -0.415000000     4.329000000
H     4.275000000    -1.185000000     3.835000000
H     3.894000000     0.270000000     3.669000000
O     3.704000000     1.078000000     1.645000000
H     2.957000000     1.625000000     1.403000000
H     4.305000000     1.676000000     2.090000000
