161
-3046.04975
C    -0.855000000     1.147000000     0.336000000
H    -1.620000000     1.748000000     0.820000000
C    -0.245000000     0.255000000     1.237000000
H    -0.424000000     0.262000000     2.309000000
C     0.648000000    -0.714000000     0.784000000
C     1.083000000    -1.820000000     1.683000000
H     0.732000000    -1.603000000     2.694000000
H     0.714000000    -2.811000000     1.410000000
H     2.172000000    -1.772000000     1.752000000
C     0.861000000    -0.780000000    -0.556000000
H     1.505000000    -1.532000000    -1.005000000
C     0.244000000     0.082000000    -1.411000000
H     0.561000000     0.009000000    -2.448000000
C    -0.625000000     1.069000000    -1.017000000
C    -1.444000000     1.851000000    -1.940000000
O    -1.210000000     1.801000000    -3.140000000
O    -2.101000000     2.808000000    -1.515000000
O    -1.138000000    -3.573000000    -5.432000000
H    -1.579000000    -3.326000000    -4.619000000
H    -1.224000000    -2.804000000    -5.995000000
O     1.736000000     2.082000000    -5.869000000
H     0.842000000     2.401000000    -5.747000000
H     2.261000000     2.605000000    -5.263000000
O    -0.864000000     1.188000000    -7.712000000
H    -0.185000000     0.783000000    -7.173000000
H    -0.565000000     2.089000000    -7.837000000
O     0.571000000    -6.595000000    -2.454000000
H     0.153000000    -6.251000000    -1.665000000
H     0.546000000    -7.545000000    -2.344000000
O    -3.218000000    -0.725000000     2.687000000
H    -4.120000000    -0.851000000     2.394000000
H    -2.699000000    -0.750000000     1.883000000
O     1.642000000     0.995000000     6.213000000
H     1.814000000     0.296000000     5.582000000
H     1.478000000     1.769000000     5.674000000
O    -0.653000000     3.415000000    -5.215000000
H    -0.974000000     2.819000000    -4.538000000
H    -1.064000000     4.255000000    -5.008000000
O    -1.411000000     5.605000000    -0.081000000
H    -1.491000000     4.800000000    -0.593000000
H    -1.360000000     6.301000000    -0.736000000
O    -2.079000000     5.041000000    -2.922000000
H    -2.934000000     5.387000000    -2.664000000
H    -1.910000000     4.333000000    -2.301000000
O    -2.035000000    -1.231000000     5.081000000
H    -1.896000000    -0.293000000     5.211000000
H    -2.593000000    -1.286000000     4.305000000
O     0.403000000     2.827000000     4.177000000
H    -0.458000000     2.530000000     4.470000000
H     0.220000000     3.376000000     3.414000000
O    -5.951000000     2.968000000    -1.819000000
H    -5.751000000     3.901000000    -1.894000000
H    -6.225000000     2.855000000    -0.909000000
O     3.919000000    -3.451000000     3.572000000
H     4.091000000    -3.512000000     2.632000000
H     4.769000000    -3.611000000     3.982000000
O     0.051000000    -7.384000000     1.656000000
H     0.401000000    -6.795000000     2.325000000
H     0.826000000    -7.771000000     1.249000000
O     0.817000000    -0.847000000    -6.350000000
H     1.561000000    -0.266000000    -6.193000000
H     0.218000000    -0.672000000    -5.625000000
O    -0.915000000    -0.462000000    -4.400000000
H    -1.042000000     0.406000000    -4.017000000
H    -1.644000000    -0.983000000    -4.062000000
O    -0.480000000    -5.089000000    -0.518000000
H    -0.151000000    -4.228000000    -0.261000000
H    -0.176000000    -5.678000000     0.172000000
O    -2.461000000    -1.572000000    -0.243000000
H    -2.742000000    -1.183000000    -1.071000000
H    -1.802000000    -0.966000000     0.096000000
O    -4.304000000     2.870000000    -6.259000000
H    -3.564000000     3.467000000    -6.365000000
H    -4.156000000     2.453000000    -5.410000000
O    -4.142000000     2.832000000     0.313000000
H    -3.480000000     2.950000000    -0.368000000
H    -3.823000000     3.351000000     1.051000000
O    -2.847000000     3.461000000     2.858000000
H    -2.842000000     3.016000000     3.706000000
H    -1.965000000     3.822000000     2.772000000
O     3.530000000     0.548000000    -2.340000000
H     3.525000000    -0.391000000    -2.527000000
H     3.526000000     0.601000000    -1.384000000
O     5.427000000     1.961000000     1.985000000
H     6.076000000     1.757000000     2.658000000
H     4.601000000     2.036000000     2.464000000
O     3.620000000     0.018000000    -5.529000000
H     2.871000000     0.568000000    -5.300000000
H     3.849000000    -0.428000000    -4.714000000
O    -0.321000000     4.496000000     2.132000000
H     0.496000000     4.979000000     2.255000000
H    -0.694000000     4.857000000     1.328000000
O     4.276000000    -3.361000000     0.034000000
H     4.960000000    -3.166000000    -0.607000000
H     4.277000000    -2.605000000     0.622000000
O     2.902000000    -4.564000000     5.973000000
H     3.160000000    -3.924000000     5.310000000
H     2.938000000    -5.407000000     5.520000000
O    -4.835000000     6.548000000     0.610000000
H    -4.312000000     6.574000000    -0.191000000
H    -4.215000000     6.761000000     1.307000000
O    -2.426000000    -1.032000000    -6.855000000
H    -1.876000000    -0.295000000    -7.123000000
H    -2.982000000    -0.676000000    -6.162000000
O    -4.806000000     6.177000000    -2.409000000
H    -5.690000000     6.519000000    -2.280000000
H    -4.853000000     5.696000000    -3.236000000
O    -0.428000000    -3.464000000     4.825000000
H    -1.106000000    -2.789000000     4.856000000
H     0.051000000    -3.360000000     5.648000000
O     2.487000000     3.356000000    -3.376000000
H     2.876000000     4.104000000    -2.923000000
H     2.336000000     2.710000000    -2.687000000
O    -5.502000000     0.675000000     1.140000000
H    -6.212000000     0.826000000     0.516000000
H    -4.912000000     1.419000000     1.016000000
O     3.753000000    -2.091000000    -3.481000000
H     3.224000000    -2.797000000    -3.110000000
H     4.259000000    -2.510000000    -4.176000000
O     2.545000000    -5.462000000     0.962000000
H     1.990000000    -5.150000000     1.676000000
H     2.846000000    -4.665000000     0.526000000
O     0.460000000     5.134000000    -3.223000000
H    -0.431000000     5.340000000    -3.507000000
H     0.588000000     4.221000000    -3.479000000
O    -4.083000000     1.853000000    -3.662000000
H    -3.346000000     1.939000000    -3.057000000
H    -4.822000000     2.246000000    -3.197000000
O    -2.968000000    -1.475000000    -3.363000000
H    -3.593000000    -0.938000000    -3.849000000
H    -3.476000000    -2.233000000    -3.076000000
O     3.519000000     2.965000000     0.295000000
H     4.343000000     2.483000000     0.366000000
H     3.011000000     2.685000000     1.056000000
O     1.005000000    -5.027000000     3.077000000
H     0.621000000    -4.276000000     3.529000000
H     0.965000000    -5.737000000     3.717000000
O     2.560000000    -4.961000000    -3.167000000
H     1.939000000    -5.494000000    -2.670000000
H     2.194000000    -4.930000000    -4.051000000
O     3.199000000    -6.748000000     3.928000000
H     3.865000000    -7.287000000     3.501000000
H     2.971000000    -6.086000000     3.275000000
O     3.410000000    -0.321000000     4.299000000
H     4.299000000    -0.295000000     4.652000000
H     3.435000000    -1.016000000     3.641000000
O    -2.364000000     2.242000000     5.567000000
H    -3.167000000     1.734000000     5.678000000
H    -2.171000000     2.580000000     6.442000000
O    -3.304000000    -4.137000000     0.309000000
H    -2.584000000    -4.660000000    -0.044000000
H    -3.073000000    -3.234000000     0.091000000
O    -2.285000000     6.800000000     2.268000000
H    -1.832000000     6.242000000     1.636000000
H    -1.797000000     7.624000000     2.254000000
O     4.678000000    -1.181000000     1.579000000
H     4.583000000    -0.249000000     1.381000000
H     5.561000000    -1.260000000     1.942000000
O     2.922000000     2.257000000     3.363000000
H     2.018000000     2.516000000     3.541000000
H     2.951000000     1.324000000     3.576000000
