161
-3074.64512
C     0.998000000     0.782000000     0.711000000
H     1.657000000     1.552000000     1.104000000
C     1.168000000     0.308000000    -0.559000000
H     1.990000000     0.677000000    -1.167000000
C     0.175000000    -0.525000000    -1.108000000
C     0.278000000    -0.902000000    -2.501000000
H    -0.420000000    -0.242000000    -3.020000000
H     1.284000000    -0.720000000    -2.886000000
H    -0.007000000    -1.942000000    -2.673000000
C    -0.902000000    -0.982000000    -0.336000000
H    -1.638000000    -1.722000000    -0.638000000
C    -1.107000000    -0.371000000     0.884000000
H    -2.023000000    -0.642000000     1.404000000
C    -0.157000000     0.516000000     1.456000000
C    -0.342000000     1.192000000     2.802000000
O    -1.473000000     1.198000000     3.177000000
O     0.523000000     1.824000000     3.356000000
O    -2.599000000     3.974000000     1.993000000
H    -2.086000000     3.278000000     2.404000000
H    -2.233000000     4.051000000     1.111000000
O     3.018000000     0.735000000     3.854000000
H     3.588000000     1.385000000     4.265000000
H     2.194000000     1.198000000     3.706000000
O     0.191000000    -0.686000000    -6.365000000
H     0.358000000    -0.812000000    -5.431000000
H    -0.687000000    -0.307000000    -6.402000000
O    -4.806000000     2.793000000    -3.114000000
H    -5.590000000     2.647000000    -2.586000000
H    -4.107000000     2.345000000    -2.636000000
O     2.459000000    -2.069000000     3.937000000
H     2.630000000    -1.202000000     4.305000000
H     1.804000000    -2.452000000     4.520000000
O    -1.687000000     6.076000000     3.632000000
H    -2.360000000     5.433000000     3.409000000
H    -0.860000000     5.623000000     3.471000000
O    -1.596000000     3.611000000    -0.852000000
H    -2.348000000     3.019000000    -0.831000000
H    -1.080000000     3.316000000    -1.602000000
O    -2.916000000    -0.584000000     4.636000000
H    -2.632000000    -1.415000000     4.254000000
H    -2.381000000     0.077000000     4.196000000
O    -3.455000000    -3.530000000     5.390000000
H    -2.933000000    -3.284000000     4.626000000
H    -2.826000000    -3.929000000     5.991000000
O    -3.079000000     4.287000000     5.838000000
H    -3.887000000     4.083000000     5.366000000
H    -3.271000000     5.102000000     6.301000000
O     0.486000000     4.605000000     3.206000000
H     0.797000000     3.710000000     3.338000000
H     0.430000000     4.701000000     2.255000000
O    -4.883000000     1.861000000     4.773000000
H    -5.245000000     2.272000000     5.557000000
H    -4.393000000     1.107000000     5.102000000
O    -0.187000000     5.097000000     6.059000000
H     0.467000000     4.716000000     5.473000000
H    -0.991000000     5.116000000     5.540000000
O    -2.671000000    -3.360000000    -2.713000000
H    -1.840000000    -3.364000000    -3.187000000
H    -2.450000000    -3.682000000    -1.839000000
O    -3.904000000    -3.162000000     0.934000000
H    -4.728000000    -3.502000000     0.586000000
H    -3.239000000    -3.467000000     0.316000000
O    -0.024000000    -4.107000000     1.802000000
H     0.231000000    -5.009000000     1.612000000
H     0.789000000    -3.607000000     1.726000000
O    -1.906000000     1.956000000    -6.500000000
H    -2.692000000     2.502000000    -6.522000000
H    -2.234000000     1.069000000    -6.352000000
O     3.506000000    -2.757000000    -1.745000000
H     3.919000000    -3.040000000    -0.929000000
H     3.707000000    -1.823000000    -1.803000000
O    -4.046000000    -0.461000000    -2.450000000
H    -4.625000000    -0.696000000    -3.175000000
H    -3.716000000    -1.299000000    -2.125000000
O    -4.017000000    -1.029000000     7.046000000
H    -3.367000000    -0.974000000     7.746000000
H    -3.510000000    -0.935000000     6.240000000
O     2.320000000    -4.657000000    -3.180000000
H     2.302000000    -4.238000000    -4.041000000
H     2.634000000    -3.973000000    -2.588000000
O    -0.747000000    -3.017000000    -7.859000000
H    -0.518000000    -2.276000000    -7.298000000
H    -0.528000000    -3.789000000    -7.337000000
O    -4.587000000    -2.640000000    -4.672000000
H    -4.687000000    -3.279000000    -5.377000000
H    -4.135000000    -3.118000000    -3.977000000
O     2.979000000     0.254000000    -4.436000000
H     3.285000000     0.768000000    -3.690000000
H     3.222000000     0.774000000    -5.202000000
O    -0.581000000    -3.439000000    -4.833000000
H    -0.297000000    -4.260000000    -5.234000000
H     0.222000000    -2.926000000    -4.744000000
O     2.305000000    -2.729000000    -5.192000000
H     2.852000000    -3.103000000    -5.883000000
H     2.690000000    -1.869000000    -5.021000000
O     4.159000000     2.405000000    -2.340000000
H     4.236000000     2.606000000    -1.407000000
H     3.426000000     2.943000000    -2.641000000
O     0.155000000    -5.743000000    -1.523000000
H     0.913000000    -5.297000000    -1.903000000
H     0.308000000    -6.671000000    -1.703000000
O     2.272000000     0.035000000    -7.764000000
H     1.442000000    -0.236000000    -7.372000000
H     2.508000000    -0.686000000    -8.349000000
O    -4.291000000     1.180000000     2.034000000
H    -3.402000000     1.508000000     2.169000000
H    -4.602000000     0.962000000     2.912000000
O     0.348000000     4.847000000     0.482000000
H     0.918000000     5.338000000    -0.110000000
H    -0.375000000     4.550000000    -0.070000000
O    -3.680000000     1.826000000    -0.563000000
H    -3.871000000     1.635000000     0.355000000
H    -3.668000000     0.969000000    -0.989000000
O     1.386000000     2.660000000     6.811000000
H     1.047000000     3.135000000     7.570000000
H     0.607000000     2.297000000     6.389000000
O    -2.447000000    -1.056000000    -6.052000000
H    -2.354000000    -1.485000000    -5.201000000
H    -3.239000000    -1.439000000    -6.428000000
O     4.401000000     0.177000000     1.380000000
H     4.231000000     0.441000000     2.284000000
H     5.116000000    -0.456000000     1.446000000
O     2.171000000    -2.428000000     1.307000000
H     2.357000000    -2.229000000     2.224000000
H     1.713000000    -1.653000000     0.981000000
O    -1.058000000     2.062000000     5.829000000
H    -0.985000000     1.810000000     4.909000000
H    -1.739000000     2.734000000     5.841000000
O     4.511000000     2.792000000     0.380000000
H     4.059000000     3.239000000     1.095000000
H     4.771000000     1.949000000     0.750000000
O     4.813000000     2.578000000     4.762000000
H     5.107000000     3.050000000     5.541000000
H     5.517000000     1.957000000     4.578000000
O     2.265000000     3.828000000    -3.218000000
H     2.497000000     4.173000000    -4.079000000
H     1.400000000     4.196000000    -3.037000000
O    -5.942000000    -2.726000000     4.012000000
H    -6.244000000    -2.053000000     4.622000000
H    -4.987000000    -2.682000000     4.061000000
O    -2.071000000    -2.651000000     3.090000000
H    -2.681000000    -2.766000000     2.361000000
H    -1.249000000    -3.028000000     2.776000000
O    -6.235000000    -1.355000000     1.138000000
H    -5.444000000    -1.211000000     0.618000000
H    -6.181000000    -0.706000000     1.839000000
O     3.745000000     4.177000000     2.630000000
H     3.876000000     3.646000000     3.415000000
H     2.903000000     4.610000000     2.771000000
O    -1.789000000    -4.499000000    -0.118000000
H    -1.394000000    -5.055000000    -0.790000000
H    -1.114000000    -4.421000000     0.556000000
O     1.267000000     0.332000000     8.441000000
H     1.487000000     1.009000000     9.081000000
H     1.419000000     0.748000000     7.592000000
O     4.694000000    -0.375000000    -1.352000000
H     4.617000000    -0.239000000    -0.408000000
H     4.733000000     0.508000000    -1.719000000
O     6.203000000     3.387000000    -3.736000000
H     5.525000000     3.170000000    -3.097000000
H     6.733000000     4.059000000    -3.306000000
