161
-3046.93316
C     0.846000000     1.019000000     0.694000000
H     1.553000000     1.677000000     1.193000000
C     1.084000000     0.335000000    -0.480000000
H     2.101000000     0.420000000    -0.856000000
C     0.233000000    -0.555000000    -1.065000000
C     0.710000000    -1.413000000    -2.265000000
H     0.084000000    -1.337000000    -3.156000000
H     1.697000000    -1.090000000    -2.603000000
H     0.860000000    -2.418000000    -1.864000000
C    -1.057000000    -0.678000000    -0.524000000
H    -1.833000000    -1.301000000    -0.961000000
C    -1.418000000    -0.004000000     0.636000000
H    -2.372000000    -0.145000000     1.138000000
C    -0.414000000     0.766000000     1.271000000
C    -0.611000000     1.396000000     2.608000000
O    -1.529000000     0.995000000     3.302000000
O     0.072000000     2.340000000     2.931000000
O    -1.707000000     0.731000000     7.357000000
H    -1.721000000     1.673000000     7.185000000
H    -1.239000000     0.359000000     6.610000000
O    -0.807000000     4.776000000     2.014000000
H    -0.572000000     3.855000000     2.125000000
H    -0.088000000     5.147000000     1.503000000
O     3.027000000     1.268000000     3.157000000
H     3.126000000     1.246000000     4.109000000
H     2.666000000     2.135000000     2.974000000
O     3.029000000    -0.453000000    -6.668000000
H     3.392000000     0.288000000    -6.183000000
H     2.431000000    -0.056000000    -7.301000000
O    -3.515000000     3.604000000    -2.729000000
H    -4.355000000     3.147000000    -2.762000000
H    -3.172000000     3.414000000    -1.855000000
O     1.281000000    -1.814000000     4.759000000
H     1.040000000    -0.905000000     4.935000000
H     0.688000000    -2.329000000     5.306000000
O     2.948000000    -1.427000000     2.757000000
H     3.096000000    -0.491000000     2.894000000
H     2.417000000    -1.698000000     3.505000000
O    -0.730000000     2.997000000    -1.095000000
H    -0.228000000     2.222000000    -0.842000000
H    -1.566000000     2.900000000    -0.639000000
O    -2.406000000    -1.111000000     4.798000000
H    -2.993000000    -1.557000000     4.188000000
H    -1.891000000    -0.521000000     4.247000000
O    -4.745000000    -5.613000000    -1.058000000
H    -4.151000000    -6.114000000    -1.616000000
H    -4.189000000    -5.277000000    -0.355000000
O    -1.671000000     3.537000000     7.189000000
H    -2.602000000     3.711000000     7.049000000
H    -1.374000000     4.255000000     7.748000000
O     2.094000000     3.810000000     2.254000000
H     1.233000000     3.428000000     2.421000000
H     2.017000000     4.204000000     1.385000000
O    -6.105000000     3.200000000     4.674000000
H    -5.415000000     2.737000000     5.149000000
H    -6.498000000     3.779000000     5.327000000
O     1.542000000     6.300000000     4.939000000
H     2.405000000     5.918000000     5.100000000
H     0.928000000     5.587000000     5.112000000
O    -1.841000000    -3.308000000    -3.299000000
H    -1.028000000    -3.318000000    -3.804000000
H    -2.131000000    -4.220000000    -3.293000000
O    -4.980000000    -2.535000000     0.550000000
H    -5.881000000    -2.246000000     0.403000000
H    -4.642000000    -2.719000000    -0.327000000
O    -0.934000000    -3.898000000     1.561000000
H    -0.768000000    -4.717000000     1.095000000
H    -0.245000000    -3.306000000     1.258000000
O     3.890000000    -3.624000000    -0.615000000
H     2.984000000    -3.537000000    -0.318000000
H     4.030000000    -2.865000000    -1.181000000
O    -4.802000000     0.356000000    -0.652000000
H    -4.375000000    -0.299000000    -1.205000000
H    -5.446000000    -0.141000000    -0.146000000
O    -2.044000000    -2.055000000     7.363000000
H    -2.011000000    -1.190000000     7.772000000
H    -2.226000000    -1.877000000     6.440000000
O     3.743000000    -4.730000000    -3.602000000
H     3.831000000    -3.849000000    -3.965000000
H     3.601000000    -4.591000000    -2.666000000
O     2.093000000     2.953000000     7.821000000
H     1.547000000     3.282000000     7.106000000
H     2.632000000     3.702000000     8.075000000
O    -2.297000000    -1.216000000    -5.169000000
H    -2.763000000    -2.022000000    -5.390000000
H    -2.127000000    -1.287000000    -4.229000000
O     4.180000000     1.328000000    -4.881000000
H     4.263000000     1.629000000    -3.976000000
H     4.057000000     2.130000000    -5.389000000
O     0.466000000    -3.341000000    -4.762000000
H     1.263000000    -2.932000000    -4.425000000
H     0.321000000    -2.920000000    -5.610000000
O     3.949000000    -2.507000000    -5.057000000
H     4.217000000    -3.161000000    -5.703000000
H     3.546000000    -1.810000000    -5.575000000
O     4.419000000     2.452000000    -2.552000000
H     4.580000000     2.699000000    -1.641000000
H     3.493000000     2.649000000    -2.692000000
O     2.232000000    -6.218000000    -1.139000000
H     2.299000000    -6.715000000    -1.954000000
H     2.861000000    -6.635000000    -0.551000000
O    -3.813000000     2.296000000     2.909000000
H    -3.083000000     1.826000000     3.313000000
H    -4.525000000     2.225000000     3.545000000
O     1.558000000     4.518000000    -0.206000000
H     2.096000000     4.980000000    -0.850000000
H     0.837000000     4.150000000    -0.716000000
O    -3.258000000     2.619000000     0.261000000
H    -3.057000000     2.573000000     1.196000000
H    -3.847000000     1.881000000     0.106000000
O     3.030000000     0.897000000     6.285000000
H     3.911000000     0.876000000     5.911000000
H     3.035000000     1.657000000     6.867000000
O    -1.511000000    -0.564000000    -7.601000000
H    -1.976000000    -0.648000000    -6.769000000
H    -1.358000000    -1.466000000    -7.883000000
O     5.616000000     1.074000000     1.661000000
H     4.937000000     0.711000000     2.229000000
H     5.985000000     0.313000000     1.212000000
O     1.590000000    -2.684000000     0.601000000
H     1.949000000    -2.098000000     1.268000000
H     1.118000000    -2.105000000     0.003000000
O     0.256000000     3.657000000     5.330000000
H     0.299000000     3.222000000     4.479000000
H    -0.623000000     3.463000000     5.655000000
O     1.939000000     3.282000000    -2.854000000
H     1.226000000     3.313000000    -3.492000000
H     2.273000000     4.179000000    -2.825000000
O    -4.310000000    -1.983000000    -2.109000000
H    -3.449000000    -2.381000000    -2.238000000
H    -4.822000000    -2.270000000    -2.865000000
O    -7.026000000    -0.270000000     2.302000000
H    -6.310000000     0.324000000     2.528000000
H    -7.605000000     0.253000000     1.747000000
O    -2.911000000     5.474000000     3.393000000
H    -2.166000000     5.216000000     2.850000000
H    -3.671000000     5.089000000     2.957000000
O    -3.332000000    -2.705000000     2.816000000
H    -3.767000000    -2.550000000     1.978000000
H    -2.574000000    -3.247000000     2.596000000
O     4.920000000     3.742000000     2.653000000
H     5.198000000     2.850000000     2.446000000
H     4.032000000     3.804000000     2.302000000
O    -2.136000000    -6.827000000    -1.726000000
H    -1.902000000    -7.520000000    -2.343000000
H    -1.297000000    -6.495000000    -1.408000000
O     0.341000000     0.717000000     5.476000000
H     1.208000000     1.039000000     5.722000000
H     0.007000000     1.373000000     4.864000000
O    -5.060000000     4.663000000     1.434000000
H    -4.562000000     5.322000000     0.950000000
H    -4.750000000     3.826000000     1.087000000
O    -0.172000000    -6.138000000     0.062000000
H    -0.012000000    -6.822000000     0.712000000
H     0.659000000    -6.053000000    -0.406000000
O    -4.897000000    -0.046000000     5.196000000
H    -3.999000000    -0.248000000     4.935000000
H    -4.808000000     0.384000000     6.047000000
O     4.691000000    -1.718000000    -2.159000000
H     5.024000000    -2.137000000    -2.952000000
H     4.237000000    -0.936000000    -2.474000000
