161
-3047.34766
C     0.179000000     1.468000000    -0.048000000
H     0.353000000     2.541000000    -0.054000000
C     0.665000000     0.625000000    -0.997000000
H     1.244000000     1.067000000    -1.804000000
C     0.206000000    -0.712000000    -0.962000000
C     0.711000000    -1.753000000    -1.956000000
H    -0.100000000    -2.107000000    -2.596000000
H     1.337000000    -1.189000000    -2.651000000
H     1.296000000    -2.499000000    -1.414000000
C    -0.322000000    -1.241000000     0.171000000
H    -0.552000000    -2.304000000     0.188000000
C    -0.717000000    -0.428000000     1.220000000
H    -1.199000000    -0.917000000     2.062000000
C    -0.445000000     0.918000000     1.132000000
C    -0.796000000     1.929000000     2.256000000
O    -0.998000000     1.484000000     3.378000000
O    -0.867000000     3.123000000     2.080000000
O     0.602000000     0.701000000     5.329000000
H    -0.141000000     0.951000000     4.779000000
H     0.405000000    -0.193000000     5.606000000
O     1.402000000    -5.285000000     0.497000000
H     2.207000000    -5.568000000     0.064000000
H     0.713000000    -5.447000000    -0.148000000
O     0.357000000    -3.512000000     2.544000000
H     0.642000000    -4.409000000     2.716000000
H     1.082000000    -3.120000000     2.057000000
O     0.619000000    -6.302000000    -4.425000000
H     1.043000000    -7.080000000    -4.064000000
H     1.338000000    -5.781000000    -4.783000000
O    -3.924000000    -3.217000000     3.948000000
H    -4.739000000    -3.714000000     4.019000000
H    -3.894000000    -2.690000000     4.746000000
O     0.406000000     3.729000000     4.386000000
H     0.096000000     3.257000000     3.613000000
H     0.081000000     3.217000000     5.126000000
O    -3.749000000     0.095000000    -0.369000000
H    -2.794000000     0.144000000    -0.325000000
H    -4.043000000     0.346000000     0.506000000
O     3.967000000    -0.438000000    -3.148000000
H     3.976000000    -1.207000000    -3.718000000
H     3.919000000    -0.797000000    -2.262000000
O     1.446000000     5.383000000     2.122000000
H     1.070000000     5.205000000     2.984000000
H     0.916000000     4.865000000     1.517000000
O    -4.755000000    -0.105000000     6.209000000
H    -4.646000000    -0.997000000     6.539000000
H    -3.946000000     0.072000000     5.728000000
O    -2.072000000     5.845000000    -1.767000000
H    -2.035000000     6.701000000    -1.340000000
H    -2.691000000     5.963000000    -2.487000000
O    -3.377000000    -3.143000000    -1.167000000
H    -2.941000000    -2.304000000    -1.314000000
H    -3.497000000    -3.188000000    -0.218000000
O     4.102000000    -2.878000000    -4.225000000
H     3.481000000    -3.542000000    -4.523000000
H     4.870000000    -3.376000000    -3.945000000
O     3.961000000     2.174000000    -0.032000000
H     3.220000000     2.750000000     0.158000000
H     4.729000000     2.741000000     0.035000000
O    -2.137000000    -4.753000000     1.916000000
H    -1.314000000    -4.271000000     2.005000000
H    -2.758000000    -4.268000000     2.459000000
O    -2.889000000     3.241000000    -0.755000000
H    -2.303000000     3.027000000    -0.028000000
H    -2.437000000     3.940000000    -1.229000000
O    -0.913000000    -0.744000000    -7.778000000
H    -0.665000000    -1.541000000    -8.247000000
H    -0.428000000    -0.791000000    -6.954000000
O    -1.448000000    -2.584000000    -4.678000000
H    -2.117000000    -2.922000000    -5.274000000
H    -1.370000000    -3.256000000    -4.000000000
O    -2.005000000     7.527000000     0.470000000
H    -1.215000000     7.822000000     0.923000000
H    -2.451000000     6.968000000     1.107000000
O    -2.480000000    -0.438000000     4.646000000
H    -2.216000000     0.408000000     4.285000000
H    -1.742000000    -1.019000000     4.461000000
O     0.498000000     5.066000000    -2.583000000
H    -0.223000000     5.190000000    -1.965000000
H     0.109000000     5.235000000    -3.441000000
O     5.404000000     1.892000000    -2.631000000
H     4.956000000     2.000000000    -1.792000000
H     5.275000000     0.971000000    -2.854000000
O     3.107000000     1.048000000    -5.152000000
H     2.260000000     1.450000000    -4.961000000
H     3.348000000     0.598000000    -4.342000000
O     2.959000000     1.429000000     3.795000000
H     2.141000000     1.195000000     4.232000000
H     2.748000000     2.218000000     3.297000000
O     4.537000000    -5.810000000    -1.146000000
H     5.312000000    -6.255000000    -0.804000000
H     4.577000000    -5.952000000    -2.092000000
O    -4.143000000     0.282000000     2.431000000
H    -3.740000000    -0.237000000     3.127000000
H    -4.694000000     0.914000000     2.892000000
O    -1.124000000     3.326000000     7.038000000
H    -1.513000000     3.945000000     6.422000000
H    -0.856000000     3.865000000     7.783000000
O     1.578000000     2.001000000     7.434000000
H     1.327000000     1.539000000     6.634000000
H     0.754000000     2.345000000     7.780000000
O     2.543000000     5.463000000     5.205000000
H     3.146000000     5.420000000     4.464000000
H     1.932000000     4.740000000     5.060000000
O     0.385000000     1.711000000    -4.778000000
H    -0.564000000     1.828000000    -4.738000000
H     0.505000000     0.769000000    -4.899000000
O    -5.394000000     2.400000000     3.553000000
H    -4.770000000     2.571000000     4.258000000
H    -5.474000000     3.238000000     3.096000000
O    -1.560000000    -3.397000000     6.963000000
H    -1.408000000    -2.920000000     6.147000000
H    -0.981000000    -2.976000000     7.598000000
O    -4.530000000     5.964000000    -0.018000000
H    -5.212000000     5.620000000     0.559000000
H    -3.934000000     5.227000000    -0.150000000
O     2.585000000    -1.736000000     2.110000000
H     2.548000000    -0.956000000     2.664000000
H     3.467000000    -2.082000000     2.242000000
O    -3.821000000    -4.735000000    -3.379000000
H    -4.067000000    -4.017000000    -2.795000000
H    -2.866000000    -4.695000000    -3.418000000
O     2.534000000     4.292000000    -0.646000000
H     1.913000000     4.253000000    -1.373000000
H     2.756000000     5.220000000    -0.571000000
O    -0.252000000    -1.927000000     4.638000000
H     0.581000000    -1.986000000     5.106000000
H    -0.037000000    -2.168000000     3.737000000
O     0.580000000     7.972000000     1.601000000
H     0.827000000     8.138000000     0.691000000
H     0.814000000     7.056000000     1.750000000
O     0.520000000    -1.002000000    -5.554000000
H     1.309000000    -1.207000000    -5.051000000
H    -0.134000000    -1.625000000    -5.238000000
O     5.494000000    -3.089000000    -1.123000000
H     5.250000000    -4.013000000    -1.077000000
H     4.808000000    -2.635000000    -0.632000000
O    -2.237000000     5.473000000     2.529000000
H    -1.790000000     4.646000000     2.707000000
H    -3.157000000     5.232000000     2.428000000
O    -0.932000000    -5.945000000    -0.656000000
H    -1.123000000    -5.453000000     0.142000000
H    -1.715000000    -6.476000000    -0.803000000
O    -1.114000000    -4.702000000    -3.087000000
H    -0.492000000    -5.230000000    -3.588000000
H    -1.064000000    -5.053000000    -2.198000000
O    -4.522000000    -2.572000000     1.404000000
H    -4.197000000    -2.986000000     2.204000000
H    -4.695000000    -1.665000000     1.658000000
O     4.183000000    -0.707000000    -0.346000000
H     3.253000000    -0.912000000    -0.250000000
H     4.231000000     0.244000000    -0.241000000
O    -3.164000000     2.410000000     5.168000000
H    -2.492000000     2.583000000     4.508000000
H    -2.690000000     2.416000000     5.999000000
O    -1.704000000     5.482000000     5.260000000
H    -2.003000000     5.564000000     4.354000000
H    -1.132000000     6.239000000     5.392000000
O     1.220000000     4.297000000    -5.799000000
H     1.058000000     3.381000000    -5.572000000
H     0.785000000     4.796000000    -5.108000000
