161
-3022.34109
C     1.104000000     0.260000000     0.961000000
H     1.967000000     0.554000000     1.552000000
C     1.239000000     0.278000000    -0.453000000
H     2.179000000     0.667000000    -0.836000000
C     0.185000000    -0.081000000    -1.270000000
C     0.211000000     0.028000000    -2.763000000
H    -0.308000000     0.943000000    -3.057000000
H     1.272000000     0.177000000    -2.973000000
H    -0.330000000    -0.806000000    -3.215000000
C    -1.010000000    -0.379000000    -0.614000000
H    -1.867000000    -0.784000000    -1.147000000
C    -1.144000000    -0.445000000     0.778000000
H    -2.134000000    -0.672000000     1.168000000
C    -0.125000000    -0.078000000     1.576000000
C    -0.367000000     0.084000000     3.043000000
O    -1.447000000    -0.109000000     3.520000000
O     0.579000000     0.357000000     3.738000000
O    -4.919000000     3.329000000    -1.423000000
H    -5.855000000     3.236000000    -1.242000000
H    -4.489000000     2.865000000    -0.705000000
O    -2.316000000     2.593000000     2.636000000
H    -2.136000000     1.787000000     3.120000000
H    -2.597000000     3.217000000     3.306000000
O     2.721000000    -1.571000000     3.487000000
H     3.038000000    -1.334000000     2.616000000
H     1.974000000    -0.990000000     3.636000000
O    -4.115000000     1.890000000     0.705000000
H    -4.729000000     1.229000000     1.023000000
H    -3.478000000     1.986000000     1.414000000
O     1.369000000    -1.911000000     7.559000000
H     1.941000000    -1.292000000     7.105000000
H     0.625000000    -2.027000000     6.968000000
O     4.525000000    -3.356000000     4.573000000
H     4.139000000    -2.736000000     3.955000000
H     5.280000000    -2.894000000     4.935000000
O    -4.432000000     1.050000000     5.152000000
H    -5.119000000     0.411000000     4.960000000
H    -3.657000000     0.520000000     5.339000000
O    -0.838000000     2.930000000    -0.069000000
H    -1.735000000     2.599000000    -0.019000000
H    -0.302000000     2.221000000     0.287000000
O     3.271000000     4.276000000     5.696000000
H     2.797000000     3.715000000     5.082000000
H     3.957000000     4.684000000     5.167000000
O    -0.110000000    -1.802000000     5.406000000
H    -0.270000000    -2.500000000     4.771000000
H    -0.252000000    -0.993000000     4.914000000
O    -3.450000000     2.659000000     7.717000000
H    -3.211000000     2.374000000     6.835000000
H    -2.851000000     3.381000000     7.906000000
O     4.527000000    -1.105000000    -1.197000000
H     4.733000000    -0.364000000    -0.628000000
H     3.709000000    -1.457000000    -0.845000000
O    -4.613000000    -1.232000000    -6.225000000
H    -3.682000000    -1.070000000    -6.073000000
H    -5.029000000    -1.047000000    -5.383000000
O     0.196000000     3.930000000     5.860000000
H    -0.483000000     3.261000000     5.774000000
H     0.918000000     3.610000000     5.321000000
O    -3.111000000    -3.641000000     1.650000000
H    -2.868000000    -4.491000000     2.016000000
H    -2.753000000    -3.650000000     0.763000000
O    -2.106000000     1.612000000    -5.375000000
H    -1.939000000     1.767000000    -6.305000000
H    -1.717000000     0.755000000    -5.202000000
O     2.305000000    -2.871000000    -0.857000000
H     1.378000000    -3.080000000    -0.740000000
H     2.401000000    -2.727000000    -1.798000000
O    -5.694000000    -1.823000000    -0.331000000
H    -5.736000000    -1.297000000    -1.129000000
H    -6.428000000    -2.433000000    -0.407000000
O     1.130000000     4.900000000    -3.731000000
H     1.503000000     4.023000000    -3.816000000
H     1.813000000     5.410000000    -3.294000000
O    -1.227000000    -4.226000000    -2.136000000
H    -1.762000000    -3.440000000    -2.241000000
H    -0.690000000    -4.257000000    -2.928000000
O    -1.431000000     4.233000000    -4.401000000
H    -1.476000000     3.333000000    -4.724000000
H    -0.494000000     4.405000000    -4.303000000
O     0.599000000    -2.560000000    -7.275000000
H     0.597000000    -3.468000000    -7.580000000
H     1.525000000    -2.352000000    -7.150000000
O    -3.128000000    -2.590000000    -3.419000000
H    -3.620000000    -3.145000000    -4.024000000
H    -3.782000000    -1.996000000    -3.051000000
O     6.178000000     2.114000000    -3.527000000
H     5.662000000     2.629000000    -2.906000000
H     6.825000000     2.730000000    -3.869000000
O    -5.198000000    -2.233000000     5.727000000
H    -4.706000000    -2.244000000     6.549000000
H    -4.526000000    -2.255000000     5.046000000
O     0.749000000    -4.118000000    -4.411000000
H     1.203000000    -3.300000000    -4.210000000
H     1.382000000    -4.623000000    -4.923000000
O     3.985000000     2.654000000    -1.346000000
H     4.618000000     2.317000000    -0.712000000
H     3.361000000     3.153000000    -0.818000000
O     2.629000000    -4.565000000     1.574000000
H     3.429000000    -5.060000000     1.394000000
H     2.639000000    -3.853000000     0.935000000
O    -3.534000000    -1.594000000     3.664000000
H    -2.687000000    -1.149000000     3.632000000
H    -3.414000000    -2.376000000     3.125000000
O     0.480000000     4.618000000     2.236000000
H    -0.144000000     4.198000000     1.645000000
H     0.279000000     5.552000000     2.172000000
O    -5.708000000    -0.243000000     2.106000000
H    -4.938000000    -0.557000000     2.580000000
H    -5.739000000    -0.781000000     1.315000000
O     4.640000000     2.058000000     5.718000000
H     4.118000000     2.848000000     5.573000000
H     5.460000000     2.225000000     5.253000000
O     2.322000000     2.554000000    -3.695000000
H     2.569000000     1.721000000    -4.096000000
H     2.865000000     2.612000000    -2.909000000
O    -1.134000000    -1.125000000    -5.651000000
H    -1.405000000    -1.696000000    -4.932000000
H    -0.659000000    -1.703000000    -6.249000000
O     5.816000000     0.985000000     0.265000000
H     5.989000000     1.256000000     1.166000000
H     6.645000000     1.131000000    -0.192000000
O     0.549000000    -3.974000000     3.779000000
H     1.065000000    -4.087000000     2.981000000
H     1.044000000    -4.441000000     4.452000000
O    -1.619000000     1.435000000     5.754000000
H    -1.522000000     0.861000000     4.995000000
H    -1.054000000     1.046000000     6.422000000
O     4.848000000     4.156000000     1.749000000
H     5.723000000     3.766000000     1.744000000
H     4.882000000     4.809000000     2.448000000
O    -1.430000000     4.897000000    -1.827000000
H    -1.267000000     4.137000000    -1.269000000
H    -1.381000000     4.554000000    -2.720000000
O     2.280000000     3.752000000     0.641000000
H     3.031000000     3.580000000     1.209000000
H     1.604000000     4.084000000     1.231000000
O    -5.137000000    -0.704000000    -3.291000000
H    -5.977000000    -0.750000000    -3.747000000
H    -4.981000000     0.232000000    -3.169000000
O     5.541000000    -1.753000000     2.375000000
H     5.992000000    -2.122000000     1.615000000
H     5.594000000    -0.806000000     2.247000000
O     1.904000000     2.690000000     4.023000000
H     1.423000000     1.879000000     3.859000000
H     1.501000000     3.331000000     3.437000000
O    -2.615000000    -5.850000000    -0.575000000
H    -2.806000000    -6.406000000    -1.331000000
H    -1.861000000    -5.327000000    -0.847000000
O     2.793000000    -0.037000000     6.220000000
H     3.499000000     0.563000000     5.980000000
H     2.264000000    -0.115000000     5.426000000
O    -1.739000000    -3.147000000     6.953000000
H    -1.863000000    -3.804000000     6.268000000
H    -1.426000000    -2.371000000     6.487000000
O     4.092000000     0.343000000    -3.669000000
H     4.413000000    -0.243000000    -2.984000000
H     4.776000000     1.007000000    -3.757000000
O     2.544000000    -2.041000000    -3.495000000
H     2.210000000    -1.153000000    -3.617000000
H     3.430000000    -2.016000000    -3.858000000
