161
-3038.59743
C     0.076000000     1.445000000     0.103000000
H     0.125000000     2.528000000     0.024000000
C     0.464000000     0.686000000    -1.032000000
H     0.781000000     1.110000000    -1.981000000
C     0.353000000    -0.672000000    -0.957000000
C     0.661000000    -1.559000000    -2.226000000
H    -0.059000000    -1.324000000    -3.013000000
H     1.670000000    -1.541000000    -2.645000000
H     0.433000000    -2.570000000    -1.882000000
C    -0.158000000    -1.253000000     0.172000000
H    -0.222000000    -2.335000000     0.091000000
C    -0.487000000    -0.506000000     1.327000000
H    -0.857000000    -0.956000000     2.245000000
C    -0.387000000     0.891000000     1.301000000
C    -0.756000000     1.815000000     2.486000000
O    -1.269000000     1.295000000     3.428000000
O    -0.375000000     2.948000000     2.559000000
O     0.667000000     0.617000000     5.060000000
H     0.041000000     1.114000000     4.533000000
H     0.659000000    -0.260000000     4.678000000
O     1.749000000    -3.698000000     1.500000000
H     2.275000000    -3.730000000     0.700000000
H     0.879000000    -3.989000000     1.226000000
O     0.750000000    -2.268000000     3.937000000
H     0.339000000    -3.129000000     3.861000000
H     1.306000000    -2.199000000     3.160000000
O     1.741000000    -6.239000000    -1.920000000
H     2.477000000    -6.794000000    -2.179000000
H     2.148000000    -5.422000000    -1.629000000
O    -5.376000000    -0.816000000     3.598000000
H    -5.920000000    -1.536000000     3.917000000
H    -4.581000000    -0.863000000     4.129000000
O     1.381000000    -3.954000000    -5.312000000
H     0.467000000    -3.973000000    -5.027000000
H     1.569000000    -4.855000000    -5.573000000
O     1.872000000     3.765000000     4.396000000
H     0.976000000     3.798000000     4.061000000
H     1.771000000     3.608000000     5.335000000
O    -3.215000000     0.738000000    -0.617000000
H    -3.478000000     0.549000000     0.284000000
H    -3.045000000     1.680000000    -0.624000000
O     4.574000000     1.287000000    -2.192000000
H     4.674000000     0.581000000    -2.830000000
H     4.225000000     0.856000000    -1.411000000
O     0.732000000     5.179000000     1.498000000
H     0.038000000     5.764000000     1.194000000
H     0.268000000     4.412000000     1.835000000
O     6.631000000    -1.672000000    -0.885000000
H     7.050000000    -0.944000000    -1.344000000
H     5.694000000    -1.545000000    -1.039000000
O    -3.194000000     0.414000000     7.606000000
H    -3.522000000    -0.122000000     6.883000000
H    -2.783000000     1.165000000     7.179000000
O     0.527000000     4.382000000    -4.498000000
H     0.371000000     4.797000000    -3.650000000
H     0.122000000     3.518000000    -4.421000000
O    -1.406000000     5.982000000    -0.746000000
H    -1.809000000     6.790000000    -0.428000000
H    -1.612000000     5.964000000    -1.681000000
O    -2.893000000    -2.822000000    -1.279000000
H    -3.535000000    -2.640000000    -0.593000000
H    -2.199000000    -2.179000000    -1.133000000
O     3.602000000    -4.350000000    -0.813000000
H     4.052000000    -4.722000000    -0.055000000
H     4.287000000    -4.256000000    -1.476000000
O     3.549000000     3.237000000     1.963000000
H     3.181000000     3.857000000     1.335000000
H     3.112000000     3.444000000     2.789000000
O    -3.058000000    -3.258000000     3.054000000
H    -3.591000000    -4.035000000     3.225000000
H    -2.215000000    -3.606000000     2.764000000
O     5.164000000     3.917000000    -2.478000000
H     4.447000000     4.317000000    -2.969000000
H     4.862000000     3.027000000    -2.296000000
O    -2.969000000     3.550000000    -0.851000000
H    -3.600000000     3.956000000    -0.257000000
H    -2.277000000     4.203000000    -0.949000000
O    -0.801000000    -4.586000000     4.812000000
H    -1.210000000    -5.451000000     4.805000000
H    -1.231000000    -4.124000000     5.532000000
O     4.736000000    -0.620000000    -4.190000000
H     3.981000000    -0.557000000    -4.775000000
H     5.117000000    -1.477000000    -4.382000000
O    -0.208000000    -0.758000000    -5.919000000
H     0.685000000    -0.916000000    -5.610000000
H    -0.564000000    -1.632000000    -6.079000000
O    -1.037000000     7.899000000     3.047000000
H    -1.645000000     8.438000000     3.552000000
H    -1.584000000     7.213000000     2.665000000
O    -2.777000000    -0.680000000     4.849000000
H    -2.376000000    -0.041000000     4.259000000
H    -2.566000000    -1.529000000     4.461000000
O     3.147000000     1.139000000     3.950000000
H     2.471000000     0.715000000     4.479000000
H     2.903000000     2.064000000     3.946000000
O    -1.502000000    -4.387000000    -4.837000000
H    -1.292000000    -4.576000000    -3.922000000
H    -2.301000000    -4.886000000    -5.008000000
O    -5.535000000     0.943000000     1.583000000
H    -5.703000000     0.356000000     2.320000000
H    -5.115000000     1.708000000     1.976000000
O    -0.898000000     3.364000000     7.548000000
H    -0.719000000     3.886000000     6.766000000
H    -0.854000000     3.990000000     8.271000000
O     1.767000000     2.067000000     7.094000000
H     1.333000000     1.384000000     6.582000000
H     1.085000000     2.395000000     7.680000000
O     2.511000000    -1.561000000    -5.500000000
H     2.208000000    -1.685000000    -6.400000000
H     2.312000000    -2.389000000    -5.064000000
O    -4.493000000    -4.915000000    -0.836000000
H    -3.846000000    -4.260000000    -1.098000000
H    -5.281000000    -4.685000000    -1.327000000
O    -0.967000000     2.177000000    -4.377000000
H    -1.759000000     2.449000000    -3.913000000
H    -1.127000000     1.263000000    -4.609000000
O    -4.356000000     3.055000000     3.699000000
H    -3.803000000     2.965000000     4.475000000
H    -4.426000000     4.000000000     3.562000000
O     3.540000000    -1.741000000     2.912000000
H     3.922000000    -1.552000000     3.769000000
H     3.310000000    -0.882000000     2.558000000
O    -4.711000000    -2.847000000    -3.803000000
H    -3.899000000    -2.975000000    -3.312000000
H    -5.400000000    -2.878000000    -3.139000000
O     2.727000000     4.619000000    -0.126000000
H     2.815000000     5.263000000    -0.828000000
H     1.842000000     4.756000000     0.214000000
O     1.768000000    -3.203000000     6.272000000
H     2.546000000    -2.645000000     6.294000000
H     1.195000000    -2.789000000     5.627000000
O     1.619000000     7.493000000     3.050000000
H     0.796000000     7.836000000     3.400000000
H     1.366000000     6.698000000     2.581000000
O     3.986000000    -1.383000000    -0.935000000
H     3.654000000    -2.246000000    -1.180000000
H     3.322000000    -1.029000000    -0.343000000
O    -2.064000000     5.235000000     2.795000000
H    -1.743000000     4.346000000     2.644000000
H    -2.909000000     5.113000000     3.228000000
O    -0.614000000    -5.345000000     0.661000000
H    -1.491000000    -5.644000000     0.901000000
H    -0.079000000    -6.139000000     0.671000000
O    -0.678000000    -5.161000000    -2.333000000
H     0.232000000    -5.428000000    -2.208000000
H    -0.973000000    -4.900000000    -1.460000000
O    -4.576000000    -2.379000000     0.767000000
H    -5.350000000    -1.819000000     0.831000000
H    -4.285000000    -2.491000000     1.672000000
O    -3.531000000     3.399000000    -3.535000000
H    -4.485000000     3.393000000    -3.602000000
H    -3.357000000     3.476000000    -2.596000000
O     3.185000000     0.423000000     1.047000000
H     2.232000000     0.518000000     1.041000000
H     3.501000000     1.217000000     1.478000000
O    -2.650000000     2.261000000     5.755000000
H    -2.083000000     2.006000000     5.027000000
H    -2.063000000     2.689000000     6.377000000
O    -1.066000000     5.167000000     5.496000000
H    -1.141000000     5.203000000     4.542000000
H    -0.344000000     5.761000000     5.702000000
