161
-3052.54115
C     1.242000000     0.455000000     0.660000000
H     2.183000000     0.828000000     1.057000000
C     1.087000000     0.109000000    -0.665000000
H     1.969000000     0.192000000    -1.293000000
C    -0.086000000    -0.372000000    -1.162000000
C    -0.229000000    -0.663000000    -2.594000000
H    -0.633000000    -1.639000000    -2.872000000
H    -0.798000000     0.032000000    -3.216000000
H     0.802000000    -0.589000000    -2.946000000
C    -1.147000000    -0.508000000    -0.313000000
H    -2.108000000    -0.854000000    -0.684000000
C    -1.090000000    -0.051000000     1.002000000
H    -2.022000000    -0.094000000     1.559000000
C     0.148000000     0.346000000     1.543000000
C     0.241000000     0.809000000     2.904000000
O    -0.794000000     0.758000000     3.591000000
O     1.240000000     1.244000000     3.436000000
O     4.693000000     1.541000000     5.500000000
H     4.582000000     1.311000000     4.577000000
H     3.943000000     2.100000000     5.699000000
O    -3.221000000     2.624000000    -3.691000000
H    -2.655000000     2.298000000    -4.391000000
H    -3.699000000     1.852000000    -3.389000000
O    -3.295000000    -2.905000000    -2.326000000
H    -2.598000000    -3.547000000    -2.464000000
H    -3.453000000    -2.534000000    -3.194000000
O     2.379000000    -0.109000000     8.229000000
H     1.869000000     0.096000000     7.445000000
H     2.759000000     0.728000000     8.494000000
O    -0.063000000    -4.210000000     1.181000000
H     0.222000000    -4.423000000     2.069000000
H    -0.880000000    -4.696000000     1.068000000
O     3.150000000     1.141000000    -5.516000000
H     3.802000000     0.652000000    -6.019000000
H     2.328000000     0.677000000    -5.675000000
O     1.310000000    -4.364000000    -3.896000000
H     1.845000000    -3.708000000    -3.450000000
H     1.864000000    -5.144000000    -3.930000000
O    -3.338000000     1.251000000     3.501000000
H    -2.385000000     1.190000000     3.561000000
H    -3.493000000     1.864000000     2.782000000
O     1.889000000    -2.646000000     0.312000000
H     1.123000000    -3.142000000     0.601000000
H     1.546000000    -1.779000000     0.096000000
O     0.534000000     0.432000000     6.277000000
H     0.250000000     1.276000000     6.627000000
H     0.620000000     0.579000000     5.335000000
O     4.286000000    -1.585000000     6.301000000
H     3.928000000    -0.764000000     5.966000000
H     5.223000000    -1.416000000     6.398000000
O    -6.097000000     3.263000000    -0.084000000
H    -5.775000000     2.446000000     0.297000000
H    -6.356000000     3.027000000    -0.974000000
O     1.800000000     4.355000000     3.449000000
H     1.570000000     3.458000000     3.692000000
H     1.510000000     4.886000000     4.190000000
O     2.106000000    -3.236000000    -6.358000000
H     2.937000000    -2.903000000    -6.019000000
H     1.658000000    -3.590000000    -5.589000000
O    -1.123000000     5.279000000     3.412000000
H    -1.245000000     6.195000000     3.165000000
H    -1.996000000     4.979000000     3.663000000
O    -3.588000000    -1.324000000    -4.546000000
H    -2.706000000    -1.151000000    -4.875000000
H    -4.114000000    -1.463000000    -5.333000000
O    -0.804000000     2.825000000     5.288000000
H    -0.725000000     3.583000000     4.709000000
H    -0.705000000     2.070000000     4.708000000
O     2.371000000     3.048000000     6.169000000
H     2.011000000     3.825000000     5.741000000
H     2.387000000     3.273000000     7.099000000
O     5.047000000    -1.545000000     2.594000000
H     4.357000000    -0.902000000     2.755000000
H     4.578000000    -2.354000000     2.388000000
O     3.152000000     3.464000000    -3.806000000
H     3.405000000     3.396000000    -2.886000000
H     3.202000000     2.567000000    -4.136000000
O     1.750000000    -2.036000000     4.276000000
H     2.475000000    -1.518000000     4.627000000
H     0.986000000    -1.467000000     4.361000000
O    -4.659000000    -0.522000000     4.922000000
H    -4.002000000    -0.364000000     5.599000000
H    -4.376000000     0.018000000     4.183000000
O    -0.900000000     2.133000000    -5.780000000
H    -0.376000000     2.826000000    -5.379000000
H    -1.519000000     2.596000000    -6.345000000
O    -2.626000000     3.470000000    -1.352000000
H    -2.859000000     3.166000000    -2.230000000
H    -3.038000000     4.331000000    -1.280000000
O     0.321000000    -1.684000000    -7.927000000
H     0.859000000    -2.231000000    -7.355000000
H     0.900000000    -1.456000000    -8.654000000
O    -5.149000000     0.777000000     1.161000000
H    -5.784000000     0.107000000     1.414000000
H    -4.369000000     0.284000000     0.904000000
O    -1.480000000    -4.715000000    -2.896000000
H    -1.266000000    -5.264000000    -2.141000000
H    -0.635000000    -4.378000000    -3.194000000
O     3.491000000    -3.678000000     2.232000000
H     2.804000000    -3.187000000     1.783000000
H     3.147000000    -3.822000000     3.113000000
O    -1.368000000    -0.567000000    -6.046000000
H    -0.735000000    -0.881000000    -6.691000000
H    -1.206000000     0.375000000    -5.990000000
O     3.760000000     0.768000000     3.214000000
H     4.073000000     1.503000000     2.686000000
H     2.846000000     0.983000000     3.404000000
O    -0.617000000    -2.169000000     6.725000000
H    -1.132000000    -2.192000000     5.918000000
H    -0.179000000    -1.319000000     6.706000000
O    -4.636000000     0.575000000    -2.775000000
H    -4.350000000    -0.142000000    -3.340000000
H    -5.005000000     0.141000000    -2.005000000
O     0.113000000     3.182000000    -1.507000000
H    -0.832000000     3.040000000    -1.461000000
H     0.492000000     2.308000000    -1.412000000
O     5.299000000     2.702000000     2.208000000
H     6.241000000     2.580000000     2.327000000
H     5.220000000     3.148000000     1.365000000
O     3.770000000     0.358000000    -2.757000000
H     4.580000000    -0.117000000    -2.571000000
H     3.589000000     0.171000000    -3.678000000
O    -2.188000000    -5.795000000    -5.788000000
H    -2.326000000    -4.871000000    -5.580000000
H    -1.237000000    -5.900000000    -5.794000000
O     3.401000000     4.104000000    -1.251000000
H     2.756000000     4.047000000    -0.545000000
H     4.243000000     4.165000000    -0.801000000
O    -4.715000000    -3.164000000     4.801000000
H    -3.980000000    -3.325000000     4.210000000
H    -4.692000000    -2.221000000     4.961000000
O    -3.065000000    -2.931000000     2.143000000
H    -2.785000000    -3.839000000     2.262000000
H    -3.541000000    -2.935000000     1.312000000
O    -2.934000000    -0.198000000     7.066000000
H    -2.606000000     0.618000000     7.443000000
H    -2.222000000    -0.825000000     7.195000000
O     5.823000000    -2.343000000    -0.372000000
H     5.396000000    -1.910000000     0.367000000
H     6.144000000    -1.626000000    -0.917000000
O     2.919000000    -2.790000000    -2.308000000
H     2.759000000    -3.158000000    -1.439000000
H     2.878000000    -1.843000000    -2.179000000
O    -3.310000000     3.340000000     1.831000000
H    -3.352000000     3.026000000     0.928000000
H    -3.065000000     4.262000000     1.753000000
O    -1.793000000    -1.423000000     4.258000000
H    -2.053000000    -1.891000000     3.465000000
H    -1.714000000    -0.510000000     3.982000000
O    -1.989000000     2.158000000     7.861000000
H    -1.677000000     2.422000000     6.995000000
H    -2.481000000     2.915000000     8.179000000
O    -4.802000000    -2.325000000    -0.300000000
H    -5.043000000    -3.126000000     0.165000000
H    -4.272000000    -2.625000000    -1.038000000
O     0.326000000     4.014000000    -4.252000000
H     0.458000000     4.068000000    -3.305000000
H     1.197000000     3.835000000    -4.606000000
O     1.336000000     4.576000000     0.644000000
H     1.342000000     4.218000000     1.532000000
H     0.786000000     3.972000000     0.146000000
