161
-3036.16018
C     1.206000000     0.617000000     0.498000000
H     2.119000000     1.156000000     0.738000000
C     1.067000000    -0.005000000    -0.766000000
H     1.787000000     0.031000000    -1.579000000
C    -0.138000000    -0.619000000    -1.088000000
C    -0.334000000    -1.259000000    -2.442000000
H    -1.071000000    -0.657000000    -2.978000000
H     0.616000000    -1.240000000    -2.979000000
H    -0.805000000    -2.235000000    -2.300000000
C    -1.150000000    -0.532000000    -0.206000000
H    -2.119000000    -0.958000000    -0.456000000
C    -0.995000000     0.033000000     1.088000000
H    -1.802000000     0.158000000     1.805000000
C     0.172000000     0.694000000     1.398000000
C     0.425000000     1.360000000     2.791000000
O    -0.551000000     1.844000000     3.384000000
O     1.578000000     1.608000000     3.089000000
O     3.441000000    -1.887000000     6.242000000
H     3.415000000    -1.581000000     5.336000000
H     2.569000000    -1.692000000     6.586000000
O     5.336000000     5.214000000    -0.798000000
H     4.991000000     4.349000000    -0.576000000
H     4.559000000     5.765000000    -0.892000000
O     1.023000000     4.157000000     7.273000000
H     1.562000000     4.890000000     7.572000000
H     1.593000000     3.668000000     6.679000000
O    -0.194000000    -3.810000000    -6.177000000
H    -0.164000000    -3.929000000    -7.126000000
H    -0.412000000    -2.885000000    -6.058000000
O    -0.250000000    -5.558000000    -2.864000000
H    -1.199000000    -5.521000000    -2.740000000
H     0.095000000    -4.891000000    -2.271000000
O    -3.320000000    -3.556000000    -4.889000000
H    -3.131000000    -3.099000000    -4.069000000
H    -4.262000000    -3.442000000    -5.015000000
O     4.790000000     1.023000000     5.474000000
H     5.559000000     0.876000000     4.924000000
H     4.076000000     0.588000000     5.009000000
O     1.025000000     2.597000000    -2.766000000
H     0.995000000     1.911000000    -3.433000000
H     0.426000000     2.293000000    -2.084000000
O    -3.574000000     3.283000000    -4.684000000
H    -3.068000000     2.883000000    -5.391000000
H    -3.548000000     2.638000000    -3.977000000
O    -2.902000000     0.386000000     4.209000000
H    -2.054000000     0.769000000     4.430000000
H    -3.543000000     0.998000000     4.571000000
O     4.760000000    -0.853000000    -2.675000000
H     5.146000000    -0.586000000    -3.509000000
H     4.074000000    -0.206000000    -2.511000000
O    -1.342000000    -4.755000000     2.574000000
H    -0.427000000    -4.751000000     2.855000000
H    -1.669000000    -3.887000000     2.811000000
O     0.845000000    -2.034000000     4.033000000
H     1.459000000    -2.763000000     4.124000000
H     0.793000000    -1.881000000     3.089000000
O     2.255000000     4.106000000     2.219000000
H     2.212000000     3.169000000     2.412000000
H     1.756000000     4.519000000     2.924000000
O     1.564000000    -3.325000000    -3.939000000
H     1.781000000    -2.902000000    -4.769000000
H     1.157000000    -4.154000000    -4.192000000
O     1.640000000    -4.886000000     0.104000000
H     2.242000000    -4.486000000    -0.524000000
H     2.201000000    -5.421000000     0.665000000
O     0.199000000    -0.480000000    -6.842000000
H     0.921000000    -0.565000000    -7.464000000
H    -0.577000000    -0.740000000    -7.338000000
O    -2.500000000    -1.828000000    -7.304000000
H    -3.398000000    -1.607000000    -7.550000000
H    -2.582000000    -2.236000000    -6.442000000
O    -1.515000000     3.703000000     6.350000000
H    -0.667000000     3.945000000     6.722000000
H    -2.086000000     4.444000000     6.554000000
O     2.660000000    -2.851000000    -1.441000000
H     3.536000000    -2.651000000    -1.773000000
H     2.082000000    -2.711000000    -2.191000000
O     2.358000000     2.603000000     5.651000000
H     3.007000000     1.934000000     5.870000000
H     1.968000000     2.299000000     4.832000000
O     4.350000000    -2.068000000     1.874000000
H     3.554000000    -2.073000000     1.342000000
H     4.228000000    -1.338000000     2.480000000
O     0.823000000    -1.091000000     7.159000000
H     0.920000000    -1.019000000     8.109000000
H     0.474000000    -0.241000000     6.889000000
O    -1.442000000     2.417000000    -1.074000000
H    -1.302000000     1.684000000    -0.473000000
H    -0.982000000     3.151000000    -0.666000000
O     3.214000000    -1.604000000    -5.384000000
H     4.068000000    -2.017000000    -5.253000000
H     3.268000000    -1.216000000    -6.258000000
O    -4.223000000     1.519000000     1.017000000
H    -3.949000000     1.924000000     1.840000000
H    -5.011000000     1.026000000     1.244000000
O     1.532000000     0.365000000    -4.574000000
H     0.987000000     0.179000000    -5.339000000
H     2.158000000    -0.359000000    -4.545000000
O    -6.278000000    -0.725000000     2.856000000
H    -5.830000000    -1.567000000     2.936000000
H    -5.913000000    -0.192000000     3.563000000
O    -4.350000000    -5.084000000    -1.166000000
H    -3.447000000    -4.768000000    -1.139000000
H    -4.688000000    -4.772000000    -2.006000000
O     1.436000000    -2.055000000     1.282000000
H     1.181000000    -1.372000000     0.662000000
H     1.413000000    -2.864000000     0.771000000
O    -3.339000000    -0.353000000    -4.285000000
H    -4.140000000    -0.222000000    -4.792000000
H    -3.550000000    -0.020000000    -3.413000000
O    -4.472000000     4.180000000    -0.548000000
H    -4.146000000     3.288000000    -0.430000000
H    -5.073000000     4.314000000     0.185000000
O     3.004000000    -0.446000000     3.887000000
H     2.284000000    -1.075000000     3.849000000
H     2.624000000     0.373000000     3.569000000
O    -1.673000000     1.451000000    -5.929000000
H    -1.100000000     0.963000000    -6.522000000
H    -2.202000000     0.778000000    -5.501000000
O    -2.224000000     3.863000000     2.713000000
H    -1.705000000     3.073000000     2.858000000
H    -2.651000000     4.026000000     3.554000000
O     6.232000000     2.435000000     2.116000000
H     6.946000000     3.071000000     2.164000000
H     6.566000000     1.664000000     2.574000000
O     3.875000000    -4.813000000    -4.093000000
H     4.420000000    -4.353000000    -4.731000000
H     3.159000000    -4.205000000    -3.908000000
O    -1.868000000    -5.929000000    -5.894000000
H    -1.284000000    -5.214000000    -5.639000000
H    -2.723000000    -5.512000000    -6.005000000
O     3.306000000     1.973000000    -6.424000000
H     2.754000000     2.509000000    -6.993000000
H     2.724000000     1.283000000    -6.106000000
O     3.960000000     1.823000000    -2.173000000
H     3.061000000     2.126000000    -2.302000000
H     4.163000000     2.054000000    -1.267000000
O    -1.258000000    -4.772000000    -0.330000000
H    -0.325000000    -4.723000000    -0.120000000
H    -1.696000000    -4.760000000     0.521000000
O     6.180000000    -1.179000000    -0.381000000
H     5.535000000    -1.315000000    -1.075000000
H     5.912000000    -1.777000000     0.317000000
O    -2.623000000    -2.157000000     3.504000000
H    -3.504000000    -2.431000000     3.249000000
H    -2.731000000    -1.255000000     3.807000000
O    -0.644000000     0.916000000     6.035000000
H    -0.228000000     1.046000000     5.183000000
H    -1.034000000     1.764000000     6.243000000
O    -3.874000000     1.935000000    -2.194000000
H    -4.506000000     1.702000000    -1.513000000
H    -3.082000000     2.173000000    -1.713000000
O     5.682000000     3.600000000     4.855000000
H     5.205000000     2.822000000     4.567000000
H     5.728000000     3.514000000     5.807000000
O     0.209000000     4.118000000     0.418000000
H     0.990000000     4.319000000     0.934000000
H    -0.473000000     3.957000000     1.070000000
O     4.322000000     3.050000000     0.300000000
H     3.973000000     3.479000000     1.081000000
H     5.001000000     2.462000000     0.632000000
