161
-3037.38965
C     0.041000000    -0.920000000     1.098000000
H    -0.095000000    -1.654000000     1.888000000
C    -0.666000000    -1.104000000    -0.065000000
H    -1.239000000    -2.027000000    -0.091000000
C    -0.565000000    -0.180000000    -1.109000000
C    -1.280000000    -0.555000000    -2.334000000
H    -0.836000000    -1.517000000    -2.597000000
H    -2.306000000    -0.723000000    -2.000000000
H    -1.125000000     0.172000000    -3.133000000
C     0.203000000     0.989000000    -0.948000000
H     0.147000000     1.776000000    -1.696000000
C     0.875000000     1.268000000     0.296000000
H     1.446000000     2.178000000     0.461000000
C     0.816000000     0.261000000     1.308000000
C     1.420000000     0.588000000     2.631000000
O     2.005000000     1.647000000     2.739000000
O     1.164000000    -0.198000000     3.559000000
O    -3.903000000     4.061000000     1.027000000
H    -4.212000000     3.429000000     1.676000000
H    -3.296000000     3.563000000     0.479000000
O    -1.459000000     5.834000000     1.420000000
H    -1.078000000     5.054000000     1.823000000
H    -2.295000000     5.534000000     1.062000000
O    -3.506000000    -2.904000000     2.066000000
H    -3.203000000    -2.155000000     2.578000000
H    -4.382000000    -2.654000000     1.772000000
O     2.824000000     1.727000000    -2.352000000
H     3.033000000     0.960000000    -2.886000000
H     3.103000000     2.472000000    -2.883000000
O    -1.666000000     1.879000000    -5.383000000
H    -0.931000000     2.420000000    -5.094000000
H    -2.374000000     2.091000000    -4.774000000
O    -2.902000000    -4.647000000    -0.156000000
H    -2.136000000    -5.147000000     0.123000000
H    -3.109000000    -4.088000000     0.593000000
O     0.357000000    -6.121000000    -3.968000000
H    -0.333000000    -5.481000000    -3.791000000
H     1.162000000    -5.604000000    -3.989000000
O    -0.843000000    -1.706000000     4.516000000
H    -1.560000000    -1.196000000     4.140000000
H    -0.052000000    -1.227000000     4.266000000
O     0.374000000     3.634000000     2.851000000
H     0.943000000     2.870000000     2.756000000
H     0.976000000     4.375000000     2.922000000
O     1.620000000    -4.216000000     0.996000000
H     1.947000000    -3.334000000     1.176000000
H     2.271000000    -4.797000000     1.388000000
O    -1.912000000     2.956000000    -0.524000000
H    -1.780000000     3.493000000    -1.305000000
H    -1.057000000     2.558000000    -0.359000000
O     2.403000000    -2.736000000     6.689000000
H     1.765000000    -2.071000000     6.431000000
H     2.721000000    -3.097000000     5.861000000
O    -0.168000000    -2.776000000    -7.255000000
H    -1.089000000    -2.977000000    -7.088000000
H    -0.073000000    -1.858000000    -7.002000000
O    -4.300000000    -2.514000000    -2.921000000
H    -4.795000000    -3.319000000    -3.072000000
H    -4.959000000    -1.874000000    -2.652000000
O    -6.525000000    -0.782000000    -2.404000000
H    -7.157000000    -0.400000000    -3.013000000
H    -7.050000000    -1.047000000    -1.649000000
O     2.543000000     5.310000000     3.216000000
H     2.281000000     5.368000000     4.135000000
H     3.470000000     5.549000000     3.215000000
O     1.232000000     0.039000000     6.379000000
H     0.735000000     0.715000000     6.840000000
H     0.980000000     0.141000000     5.462000000
O    -0.312000000    -0.249000000    -6.237000000
H     0.568000000     0.020000000    -5.974000000
H    -0.879000000     0.466000000    -5.946000000
O    -2.016000000    -4.556000000    -3.553000000
H    -2.591000000    -3.801000000    -3.431000000
H    -2.077000000    -5.040000000    -2.730000000
O    -3.800000000     3.130000000    -4.067000000
H    -4.223000000     3.558000000    -4.811000000
H    -4.300000000     3.424000000    -3.305000000
O     1.624000000    -4.487000000     4.428000000
H     0.688000000    -4.501000000     4.628000000
H     1.736000000    -5.160000000     3.757000000
O    -0.337000000     3.019000000    -7.902000000
H    -0.357000000     2.261000000    -7.318000000
H     0.374000000     2.832000000    -8.514000000
O     0.514000000     3.492000000    -4.721000000
H     1.033000000     2.746000000    -5.021000000
H     0.945000000     4.254000000    -5.106000000
O    -0.319000000    -5.885000000     1.770000000
H     0.219000000    -5.135000000     1.515000000
H     0.035000000    -6.616000000     1.263000000
O     6.009000000     3.440000000     0.213000000
H     5.466000000     3.056000000     0.901000000
H     5.847000000     4.381000000     0.278000000
O     4.065000000     1.743000000     4.968000000
H     3.438000000     1.776000000     5.690000000
H     3.595000000     2.121000000     4.225000000
O    -6.573000000     1.606000000    -0.303000000
H    -5.903000000     1.685000000    -0.982000000
H    -6.293000000     0.857000000     0.224000000
O     5.176000000    -0.765000000     5.421000000
H     4.789000000     0.086000000     5.215000000
H     5.857000000    -0.884000000     4.760000000
O    -4.364000000     1.050000000    -1.957000000
H    -4.943000000     0.492000000    -2.476000000
H    -3.585000000     1.160000000    -2.501000000
O     2.811000000     5.866000000     0.361000000
H     2.371000000     5.924000000     1.209000000
H     3.669000000     6.264000000     0.509000000
O     3.239000000    -0.537000000    -3.872000000
H     4.021000000    -0.972000000    -4.211000000
H     2.545000000    -1.191000000    -3.960000000
O     4.050000000     0.788000000    -0.016000000
H     3.905000000     1.471000000     0.639000000
H     3.554000000     1.079000000    -0.780000000
O     1.328000000    -2.179000000    -4.242000000
H     1.397000000    -2.765000000    -4.996000000
H     0.419000000    -1.880000000    -4.255000000
O     3.950000000     3.181000000     1.767000000
H     3.162000000     2.882000000     2.220000000
H     3.777000000     4.100000000     1.566000000
O    -2.539000000    -1.284000000     7.174000000
H    -1.978000000    -1.296000000     6.398000000
H    -2.017000000    -0.835000000     7.840000000
O     3.210000000    -0.013000000     8.427000000
H     3.634000000    -0.870000000     8.449000000
H     2.428000000    -0.146000000     7.891000000
O    -2.542000000    -0.192000000     3.103000000
H    -2.665000000     0.589000000     3.643000000
H    -2.550000000     0.135000000     2.204000000
O     2.388000000    -4.171000000    -1.923000000
H     2.419000000    -3.247000000    -2.171000000
H     2.004000000    -4.171000000    -1.046000000
O    -3.623000000     1.155000000     0.901000000
H    -3.959000000     0.589000000     0.205000000
H    -2.962000000     1.697000000     0.470000000
O     2.492000000    -2.334000000     2.712000000
H     2.411000000    -2.984000000     3.409000000
H     1.959000000    -1.596000000     3.009000000
O     2.350000000    -1.519000000    -0.554000000
H     2.865000000    -0.714000000    -0.593000000
H     1.460000000    -1.226000000    -0.357000000
O    -3.462000000    -5.448000000     3.566000000
H    -3.090000000    -4.625000000     3.248000000
H    -4.324000000    -5.496000000     3.152000000
O    -1.164000000     4.556000000    -2.881000000
H    -1.886000000     4.632000000    -3.504000000
H    -0.430000000     4.232000000    -3.403000000
O    -0.861000000    -4.783000000     5.283000000
H    -1.587000000    -5.351000000     5.026000000
H    -1.173000000    -3.897000000     5.099000000
O     5.121000000    -0.879000000     1.937000000
H     4.331000000    -1.411000000     2.026000000
H     4.881000000    -0.195000000     1.311000000
O    -0.947000000     2.828000000     5.248000000
H    -0.335000000     2.925000000     4.519000000
H    -0.458000000     2.334000000     5.907000000
O     2.732000000     5.747000000    -2.469000000
H     2.759000000     5.742000000    -1.512000000
H     3.301000000     5.022000000    -2.728000000
O     2.029000000     1.425000000    -5.392000000
H     2.391000000     0.732000000    -4.839000000
H     2.791000000     1.807000000    -5.827000000
