161
-3049.50584
C     1.067000000     0.963000000     0.333000000
H     1.878000000     1.628000000     0.616000000
C     1.188000000     0.036000000    -0.717000000
H     2.104000000    -0.011000000    -1.299000000
C     0.038000000    -0.723000000    -1.042000000
C    -0.046000000    -1.668000000    -2.163000000
H     0.691000000    -1.553000000    -2.961000000
H     0.171000000    -2.682000000    -1.821000000
H    -1.076000000    -1.554000000    -2.508000000
C    -0.984000000    -0.674000000    -0.141000000
H    -1.817000000    -1.309000000    -0.433000000
C    -1.088000000     0.179000000     0.934000000
H    -1.919000000     0.069000000     1.626000000
C    -0.032000000     1.004000000     1.232000000
C    -0.057000000     1.865000000     2.462000000
O    -0.955000000     1.677000000     3.291000000
O     0.829000000     2.745000000     2.596000000
O     4.783000000    -2.904000000    -1.528000000
H     4.951000000    -3.696000000    -1.017000000
H     4.439000000    -2.277000000    -0.892000000
O    -2.640000000    -0.930000000    -5.304000000
H    -3.498000000    -0.737000000    -5.682000000
H    -2.696000000    -0.606000000    -4.405000000
O     1.805000000     0.533000000     7.709000000
H     1.381000000     0.572000000     6.851000000
H     1.433000000     1.270000000     8.194000000
O     2.194000000     5.876000000    -0.139000000
H     2.800000000     5.171000000    -0.369000000
H     1.892000000     5.654000000     0.741000000
O     2.865000000    -0.017000000     3.100000000
H     3.341000000     0.646000000     3.600000000
H     3.307000000    -0.039000000     2.251000000
O    -2.535000000     5.785000000     4.922000000
H    -2.939000000     5.827000000     5.789000000
H    -1.883000000     5.089000000     4.996000000
O    -5.275000000     0.763000000     0.494000000
H    -6.093000000     0.302000000     0.681000000
H    -4.869000000     0.887000000     1.351000000
O     0.157000000     2.213000000    -2.938000000
H     0.645000000     1.844000000    -2.201000000
H    -0.737000000     2.309000000    -2.609000000
O     0.474000000    -1.367000000     4.462000000
H     0.621000000    -1.347000000     3.517000000
H     0.352000000    -0.449000000     4.705000000
O    -2.182000000     1.395000000     7.611000000
H    -2.785000000     2.041000000     7.244000000
H    -2.713000000     0.897000000     8.232000000
O     2.202000000     4.485000000     3.961000000
H     1.727000000     3.821000000     3.462000000
H     2.539000000     5.087000000     3.298000000
O     0.025000000     2.606000000     8.416000000
H     0.491000000     3.183000000     7.811000000
H    -0.757000000     2.336000000     7.935000000
O    -5.455000000    -4.331000000    -0.570000000
H    -5.188000000    -3.733000000     0.128000000
H    -4.632000000    -4.631000000    -0.956000000
O     2.336000000     3.817000000     6.715000000
H     3.183000000     4.106000000     7.056000000
H     2.370000000     4.025000000     5.782000000
O    -2.102000000    -3.324000000     3.130000000
H    -2.460000000    -2.554000000     3.571000000
H    -2.309000000    -4.053000000     3.714000000
O    -1.572000000    -5.069000000     0.609000000
H    -2.020000000    -4.664000000    -0.134000000
H    -1.818000000    -4.529000000     1.360000000
O    -3.041000000    -0.736000000     4.962000000
H    -3.784000000    -0.308000000     5.386000000
H    -2.671000000    -0.064000000     4.389000000
O    -2.378000000     2.749000000    -1.756000000
H    -2.915000000     3.336000000    -2.288000000
H    -2.713000000     1.874000000    -1.952000000
O     3.632000000    -1.326000000     0.647000000
H     2.738000000    -1.099000000     0.392000000
H     4.155000000    -0.566000000     0.389000000
O    -0.928000000    -3.264000000    -5.309000000
H    -0.220000000    -2.624000000    -5.388000000
H    -1.716000000    -2.734000000    -5.184000000
O     2.966000000    -2.708000000    -5.001000000
H     3.316000000    -3.210000000    -5.737000000
H     2.320000000    -2.122000000    -5.397000000
O     4.955000000     3.345000000     3.307000000
H     5.104000000     4.289000000     3.354000000
H     4.140000000     3.208000000     3.790000000
O    -2.987000000    -4.755000000    -1.830000000
H    -2.545000000    -5.604000000    -1.828000000
H    -3.003000000    -4.495000000    -2.751000000
O    -1.264000000     7.563000000     0.720000000
H    -1.018000000     6.827000000     1.280000000
H    -0.750000000     7.439000000    -0.078000000
O     1.794000000    -4.853000000    -3.636000000
H     2.252000000    -4.855000000    -2.796000000
H     1.716000000    -3.926000000    -3.864000000
O    -5.188000000     4.686000000     2.459000000
H    -4.472000000     4.177000000     2.077000000
H    -5.870000000     4.680000000     1.788000000
O    -3.498000000     1.567000000     2.541000000
H    -3.371000000     2.021000000     1.709000000
H    -2.614000000     1.456000000     2.891000000
O    -3.574000000     0.298000000    -2.924000000
H    -4.346000000     0.700000000    -3.321000000
H    -3.927000000    -0.346000000    -2.311000000
O     3.810000000    -0.763000000    -3.464000000
H     4.606000000    -1.166000000    -3.116000000
H     3.273000000    -1.502000000    -3.749000000
O    -0.362000000     5.130000000     1.579000000
H    -0.083000000     5.102000000     0.664000000
H     0.155000000     4.450000000     2.009000000
O    -0.435000000    -7.243000000    -0.256000000
H    -0.748000000    -6.399000000     0.071000000
H    -0.524000000    -7.179000000    -1.206000000
O     0.074000000     0.995000000     5.754000000
H    -0.657000000     1.072000000     6.368000000
H    -0.280000000     1.308000000     4.921000000
O     3.340000000     6.547000000     2.603000000
H     4.271000000     6.350000000     2.701000000
H     3.319000000     7.433000000     2.241000000
O     3.926000000     4.163000000    -1.095000000
H     4.522000000     4.021000000    -0.359000000
H     3.994000000     3.363000000    -1.616000000
O     0.536000000    -1.277000000    -6.270000000
H    -0.327000000    -1.069000000    -6.629000000
H     0.734000000    -0.546000000    -5.685000000
O    -0.889000000     3.844000000     4.951000000
H    -0.021000000     4.218000000     4.799000000
H    -0.888000000     3.027000000     4.452000000
O    -1.496000000    -1.861000000     7.202000000
H    -0.616000000    -1.854000000     6.824000000
H    -2.060000000    -1.538000000     6.500000000
O     4.208000000     2.013000000    -2.592000000
H     4.465000000     1.124000000    -2.838000000
H     4.081000000     2.465000000    -3.426000000
O    -4.232000000    -2.693000000     1.496000000
H    -4.908000000    -2.375000000     2.095000000
H    -3.516000000    -2.968000000     2.068000000
O     6.021000000     3.897000000     0.889000000
H     5.460000000     3.645000000     1.623000000
H     6.741000000     3.267000000     0.910000000
O     1.811000000     0.835000000    -4.854000000
H     1.452000000     1.298000000    -4.096000000
H     2.610000000     0.422000000    -4.526000000
O    -0.474000000    -6.324000000    -2.808000000
H     0.085000000    -5.646000000    -3.186000000
H    -0.832000000    -6.788000000    -3.564000000
O    -3.246000000     3.666000000     0.697000000
H    -2.404000000     3.963000000     1.042000000
H    -3.079000000     3.500000000    -0.231000000
O    -5.836000000     2.097000000     4.561000000
H    -5.816000000     3.036000000     4.748000000
H    -5.079000000     1.949000000     3.995000000
O    -3.788000000    -4.065000000    -4.709000000
H    -4.194000000    -4.897000000    -4.954000000
H    -4.522000000    -3.456000000    -4.628000000
O     1.840000000    -3.030000000     2.043000000
H     2.651000000    -3.537000000     2.019000000
H     2.127000000    -2.123000000     2.150000000
O    -4.498000000    -1.568000000    -1.107000000
H    -4.532000000    -1.130000000    -0.256000000
H    -4.306000000    -2.482000000    -0.898000000
O     5.264000000     0.844000000     0.709000000
H     5.323000000     1.591000000     0.113000000
H     6.131000000     0.439000000     0.673000000
