161
-3063.25718
C     1.405000000     0.288000000    -0.234000000
H     2.415000000     0.668000000    -0.371000000
C     0.451000000     1.263000000    -0.196000000
H     0.669000000     2.324000000    -0.289000000
C    -0.874000000     0.858000000     0.000000000
C    -1.949000000     1.853000000     0.329000000
H    -2.626000000     1.885000000    -0.527000000
H    -2.482000000     1.433000000     1.185000000
H    -1.417000000     2.768000000     0.599000000
C    -1.209000000    -0.474000000     0.193000000
H    -2.248000000    -0.753000000     0.349000000
C    -0.214000000    -1.463000000     0.021000000
H    -0.478000000    -2.514000000     0.108000000
C     1.104000000    -1.044000000    -0.094000000
C     2.151000000    -2.116000000    -0.347000000
O     2.126000000    -3.183000000     0.213000000
O     3.177000000    -1.785000000    -0.942000000
O     2.957000000    -6.103000000     0.724000000
H     3.080000000    -5.473000000     1.434000000
H     3.085000000    -5.592000000    -0.075000000
O    -3.776000000     3.988000000     3.658000000
H    -2.827000000     4.107000000     3.611000000
H    -3.915000000     3.070000000     3.425000000
O     0.202000000    -5.142000000     0.594000000
H     0.881000000    -4.506000000     0.370000000
H     0.641000000    -5.991000000     0.535000000
O    -2.184000000    -4.812000000     2.359000000
H    -2.600000000    -4.157000000     1.798000000
H    -1.349000000    -4.999000000     1.929000000
O     0.278000000    -6.838000000    -2.757000000
H     0.975000000    -6.587000000    -3.363000000
H    -0.142000000    -6.011000000    -2.519000000
O    -1.407000000     4.202000000     5.986000000
H    -0.786000000     4.913000000     5.829000000
H    -1.405000000     3.698000000     5.172000000
O    -0.110000000    -2.573000000     3.609000000
H    -0.256000000    -3.000000000     4.453000000
H    -0.856000000    -1.983000000     3.506000000
O    -2.246000000    -0.812000000     3.660000000
H    -2.328000000    -0.869000000     4.612000000
H    -2.947000000    -0.217000000     3.395000000
O     2.283000000    -5.697000000    -4.010000000
H     2.729000000    -4.974000000    -3.568000000
H     2.984000000    -6.308000000    -4.236000000
O     5.797000000     2.459000000    -1.077000000
H     6.260000000     2.218000000    -0.274000000
H     5.692000000     1.633000000    -1.550000000
O     3.130000000     5.630000000     1.239000000
H     3.067000000     4.996000000     1.952000000
H     3.392000000     5.111000000     0.479000000
O    -5.406000000    -0.908000000     0.862000000
H    -5.959000000    -1.022000000     0.089000000
H    -5.974000000    -0.476000000     1.501000000
O    -0.054000000     1.016000000     3.038000000
H     0.347000000     0.567000000     2.293000000
H    -0.823000000     0.487000000     3.250000000
O     7.340000000    -1.334000000     0.099000000
H     6.893000000    -2.181000000     0.107000000
H     7.676000000    -1.233000000     0.989000000
O     4.949000000    -0.352000000     1.165000000
H     4.352000000    -0.692000000     0.499000000
H     5.799000000    -0.730000000     0.941000000
O     3.924000000    -0.983000000     4.009000000
H     4.417000000    -0.976000000     3.189000000
H     3.853000000    -1.909000000     4.239000000
O    -0.994000000     1.947000000    -4.523000000
H    -0.757000000     2.812000000    -4.188000000
H    -1.951000000     1.959000000    -4.559000000
O     5.411000000    -4.269000000    -4.929000000
H     4.941000000    -4.316000000    -5.762000000
H     4.804000000    -3.822000000    -4.338000000
O     3.960000000     4.745000000    -1.482000000
H     4.224000000     4.993000000    -2.368000000
H     4.503000000     3.985000000    -1.274000000
O    -5.305000000     2.387000000    -2.580000000
H    -6.086000000     2.881000000    -2.829000000
H    -4.704000000     2.504000000    -3.315000000
O    -4.404000000     0.994000000     3.800000000
H    -5.004000000     0.521000000     4.377000000
H    -4.688000000     0.761000000     2.916000000
O     5.862000000    -3.333000000    -0.080000000
H     5.833000000    -4.050000000    -0.713000000
H     5.063000000    -2.833000000    -0.249000000
O    -5.199000000    -0.561000000    -2.507000000
H    -4.441000000    -1.100000000    -2.735000000
H    -4.823000000     0.269000000    -2.216000000
O     5.700000000    -5.406000000    -1.795000000
H     6.073000000    -5.096000000    -2.620000000
H     5.243000000    -6.214000000    -2.027000000
O     1.468000000     5.721000000    -1.550000000
H     1.609000000     6.584000000    -1.939000000
H     2.348000000     5.356000000    -1.451000000
O    -6.374000000     2.671000000     0.179000000
H    -5.768000000     2.622000000    -0.561000000
H    -7.001000000     1.965000000     0.021000000
O     0.202000000    -0.214000000    -3.383000000
H    -0.342000000     0.475000000    -3.765000000
H     0.275000000     0.023000000    -2.459000000
O    -3.816000000     2.663000000    -4.937000000
H    -4.707000000     2.794000000    -5.261000000
H    -3.258000000     2.821000000    -5.699000000
O     3.449000000    -3.287000000    -3.256000000
H     2.602000000    -2.984000000    -3.583000000
H     3.540000000    -2.869000000    -2.400000000
O     5.227000000    -4.366000000     2.342000000
H     5.758000000    -5.161000000     2.301000000
H     5.249000000    -4.016000000     1.451000000
O     0.301000000     5.464000000     1.469000000
H     0.350000000     5.325000000     0.524000000
H     0.997000000     6.095000000     1.655000000
O     2.516000000    -8.614000000     1.533000000
H     2.568000000    -7.668000000     1.394000000
H     1.580000000    -8.792000000     1.628000000
O    -3.109000000    -2.730000000    -1.970000000
H    -2.552000000    -3.498000000    -2.100000000
H    -3.236000000    -2.684000000    -1.022000000
O     3.547000000     1.663000000    -3.886000000
H     4.125000000     1.189000000    -3.288000000
H     3.704000000     1.261000000    -4.740000000
O    -2.022000000    -5.196000000    -1.602000000
H    -2.833000000    -5.489000000    -1.187000000
H    -1.461000000    -4.931000000    -0.873000000
O     2.052000000    -3.847000000     2.876000000
H     2.377000000    -3.587000000     2.014000000
H     1.328000000    -3.246000000     3.050000000
O     6.611000000     2.065000000     1.556000000
H     6.820000000     2.128000000     2.488000000
H     5.891000000     1.435000000     1.515000000
O    -0.322000000     4.548000000    -3.496000000
H     0.504000000     4.370000000    -3.946000000
H    -0.060000000     4.857000000    -2.629000000
O    -1.045000000     3.880000000     3.266000000
H    -0.782000000     4.595000000     2.688000000
H    -0.726000000     3.090000000     2.830000000
O     3.846000000    -3.483000000     5.029000000
H     3.135000000    -3.776000000     4.459000000
H     4.611000000    -3.973000000     4.728000000
O     2.226000000     1.630000000     4.756000000
H     1.447000000     1.497000000     4.216000000
H     2.646000000     0.770000000     4.785000000
O     1.175000000    -6.397000000     3.237000000
H     0.995000000    -5.457000000     3.206000000
H     2.060000000    -6.483000000     2.881000000
O     1.960000000     3.768000000    -4.779000000
H     2.457000000     3.124000000    -4.274000000
H     2.395000000     3.792000000    -5.631000000
O    -1.919000000     7.845000000    -0.071000000
H    -2.141000000     7.491000000     0.790000000
H    -0.996000000     7.621000000    -0.191000000
O    -3.699000000    -3.162000000     0.757000000
H    -4.494000000    -3.690000000     0.681000000
H    -4.005000000    -2.311000000     1.068000000
O     5.103000000     0.040000000    -2.523000000
H     5.575000000    -0.539000000    -3.121000000
H     4.413000000    -0.510000000    -2.152000000
O     1.848000000    -1.374000000    -5.096000000
H     1.738000000    -0.758000000    -4.372000000
H     1.187000000    -1.110000000    -5.737000000
O     0.372000000    -3.559000000    -3.690000000
H    -0.371000000    -3.847000000    -3.161000000
H     0.068000000    -2.755000000    -4.112000000
