161
-3038.03540
C     0.875000000    -0.133000000    -1.168000000
H     1.490000000    -0.084000000    -2.063000000
C    -0.004000000     0.882000000    -0.885000000
H    -0.191000000     1.647000000    -1.634000000
C    -0.816000000     0.877000000     0.208000000
C    -1.698000000     2.096000000     0.397000000
H    -1.546000000     2.720000000    -0.487000000
H    -2.762000000     1.848000000     0.421000000
H    -1.476000000     2.608000000     1.336000000
C    -0.762000000    -0.176000000     1.144000000
H    -1.436000000    -0.241000000     1.995000000
C     0.221000000    -1.177000000     0.897000000
H     0.250000000    -2.031000000     1.569000000
C     1.020000000    -1.196000000    -0.236000000
C     1.972000000    -2.274000000    -0.471000000
O     2.174000000    -3.069000000     0.428000000
O     2.692000000    -2.301000000    -1.458000000
O     5.897000000    -1.039000000     1.643000000
H     5.616000000    -1.850000000     1.218000000
H     5.142000000    -0.767000000     2.163000000
O    -4.126000000     4.528000000     2.733000000
H    -3.310000000     5.001000000     2.569000000
H    -4.812000000     5.182000000     2.602000000
O    -5.321000000     2.367000000     1.061000000
H    -6.188000000     2.773000000     1.092000000
H    -4.753000000     2.978000000     1.531000000
O     0.980000000    -5.632000000     0.505000000
H     1.215000000    -4.730000000     0.285000000
H     1.612000000    -6.168000000     0.026000000
O    -2.600000000    -5.352000000     0.057000000
H    -2.307000000    -4.456000000    -0.111000000
H    -2.029000000    -5.662000000     0.760000000
O    -1.716000000    -3.715000000     3.358000000
H    -2.277000000    -4.115000000     2.693000000
H    -2.222000000    -2.970000000     3.682000000
O     2.520000000    -5.937000000    -4.910000000
H     2.847000000    -6.837000000    -4.887000000
H     2.823000000    -5.551000000    -4.089000000
O    -1.412000000     5.114000000     2.633000000
H    -0.776000000     5.827000000     2.686000000
H    -0.900000000     4.324000000     2.807000000
O    -1.128000000     7.716000000     0.322000000
H    -0.801000000     8.039000000     1.162000000
H    -0.588000000     6.949000000     0.134000000
O     1.088000000    -2.603000000     5.262000000
H     1.763000000    -2.851000000     4.629000000
H     0.263000000    -2.826000000     4.832000000
O    -2.808000000    -1.289000000     4.324000000
H    -3.703000000    -0.978000000     4.187000000
H    -2.280000000    -0.492000000     4.359000000
O    -4.604000000    -2.169000000     1.350000000
H    -4.629000000    -1.594000000     2.115000000
H    -5.128000000    -1.713000000     0.691000000
O     2.449000000     1.302000000     2.273000000
H     1.830000000     0.852000000     1.699000000
H     2.813000000     0.608000000     2.824000000
O     5.243000000    -2.518000000    -3.231000000
H     4.524000000    -2.068000000    -2.789000000
H     5.935000000    -2.570000000    -2.571000000
O     5.647000000     1.355000000     0.314000000
H     5.875000000     0.546000000     0.772000000
H     4.699000000     1.433000000     0.423000000
O     5.867000000    -4.911000000    -4.169000000
H     5.417000000    -4.091000000    -3.967000000
H     5.329000000    -5.587000000    -3.758000000
O     2.549000000     5.025000000    -2.384000000
H     2.975000000     4.351000000    -1.855000000
H     2.246000000     5.673000000    -1.748000000
O     3.855000000    -6.293000000     2.853000000
H     4.470000000    -6.523000000     2.156000000
H     3.701000000    -7.116000000     3.317000000
O    -4.749000000     0.734000000    -1.110000000
H    -4.838000000     1.301000000    -0.344000000
H    -5.609000000     0.324000000    -1.205000000
O    -4.914000000    -0.048000000     3.060000000
H    -4.707000000     0.759000000     2.589000000
H    -5.746000000     0.136000000     3.496000000
O     4.861000000    -3.339000000     0.490000000
H     5.272000000    -3.862000000    -0.199000000
H     3.928000000    -3.356000000     0.277000000
O     5.446000000    -5.359000000    -1.211000000
H     4.652000000    -5.326000000    -1.744000000
H     5.447000000    -6.240000000    -0.838000000
O     0.006000000     4.372000000    -2.783000000
H     0.958000000     4.408000000    -2.880000000
H    -0.149000000     4.575000000    -1.861000000
O    -5.576000000     4.807000000    -1.579000000
H    -5.107000000     4.008000000    -1.818000000
H    -4.887000000     5.422000000    -1.327000000
O     3.279000000    -0.107000000    -5.734000000
H     2.735000000    -0.891000000    -5.811000000
H     4.062000000    -0.307000000    -6.247000000
O    -0.738000000    -1.267000000    -4.958000000
H    -0.545000000    -0.355000000    -4.741000000
H    -1.338000000    -1.556000000    -4.270000000
O    -3.216000000     6.506000000    -1.359000000
H    -3.440000000     7.258000000    -1.907000000
H    -2.483000000     6.809000000    -0.823000000
O     3.174000000    -4.917000000    -2.507000000
H     2.237000000    -4.907000000    -2.700000000
H     3.378000000    -4.013000000    -2.267000000
O    -2.684000000    -1.529000000    -2.953000000
H    -2.504000000    -1.824000000    -2.060000000
H    -3.128000000    -0.689000000    -2.843000000
O     7.042000000    -4.400000000     1.917000000
H     7.287000000    -4.831000000     1.098000000
H     6.193000000    -3.999000000     1.732000000
O     3.621000000    -1.055000000     3.242000000
H     3.583000000    -1.384000000     4.140000000
H     3.290000000    -1.778000000     2.708000000
O    -3.384000000     1.598000000    -4.016000000
H    -2.972000000     2.179000000    -3.377000000
H    -4.209000000     2.031000000    -4.237000000
O     3.852000000     3.565000000    -5.160000000
H     4.554000000     3.986000000    -4.664000000
H     3.423000000     2.991000000    -4.525000000
O     0.552000000    -5.593000000    -2.550000000
H     1.034000000    -6.259000000    -2.061000000
H    -0.309000000    -5.564000000    -2.132000000
O    -2.326000000    -2.656000000    -0.353000000
H    -3.199000000    -2.571000000     0.030000000
H    -1.811000000    -1.967000000     0.067000000
O     2.466000000    -3.768000000     2.980000000
H     2.609000000    -4.707000000     2.862000000
H     2.248000000    -3.448000000     2.104000000
O    -4.077000000     3.298000000     5.313000000
H    -4.336000000     3.376000000     4.395000000
H    -3.739000000     4.164000000     5.541000000
O    -2.800000000     4.097000000    -2.811000000
H    -2.731000000     4.940000000    -2.363000000
H    -1.906000000     3.901000000    -3.092000000
O    -1.245000000     1.041000000     4.249000000
H    -1.697000000     1.851000000     4.484000000
H    -0.329000000     1.202000000     4.475000000
O     0.579000000     3.237000000     3.116000000
H     0.849000000     3.548000000     3.980000000
H     1.336000000     2.753000000     2.787000000
O     4.743000000     1.160000000    -2.523000000
H     5.195000000     1.316000000    -1.694000000
H     5.446000000     1.080000000    -3.168000000
O     0.001000000     1.376000000    -5.039000000
H    -0.437000000     2.223000000    -4.962000000
H     0.775000000     1.454000000    -4.481000000
O     0.089000000     4.949000000     0.146000000
H     0.956000000     4.965000000     0.552000000
H    -0.521000000     4.933000000     0.884000000
O     2.441000000     1.657000000    -3.753000000
H     2.634000000     1.031000000    -4.451000000
H     3.127000000     1.509000000    -3.102000000
O    -0.208000000    -7.418000000     2.365000000
H     0.157000000    -6.692000000     1.859000000
H    -1.156000000    -7.297000000     2.309000000
O     1.618000000    -2.569000000    -5.918000000
H     1.854000000    -3.485000000    -5.769000000
H     0.779000000    -2.462000000    -5.469000000
O    -0.791000000     4.897000000    -5.218000000
H    -1.579000000     5.428000000    -5.103000000
H    -0.511000000     4.687000000    -4.327000000
O    -2.642000000     6.887000000     4.457000000
H    -2.407000000     6.088000000     3.986000000
H    -3.363000000     6.624000000     5.030000000
