161
-3025.58829
C    -0.824000000    -0.174000000    -1.135000000
H    -1.477000000    -0.414000000    -1.970000000
C    -1.063000000    -0.697000000     0.112000000
H    -1.892000000    -1.397000000     0.176000000
C    -0.224000000    -0.431000000     1.112000000
C    -0.465000000    -1.169000000     2.410000000
H    -0.226000000    -2.227000000     2.287000000
H     0.107000000    -0.699000000     3.214000000
H    -1.516000000    -1.000000000     2.651000000
C     0.939000000     0.301000000     0.915000000
H     1.576000000     0.545000000     1.762000000
C     1.229000000     0.890000000    -0.294000000
H     2.048000000     1.574000000    -0.501000000
C     0.280000000     0.643000000    -1.350000000
C     0.469000000     1.248000000    -2.766000000
O     1.226000000     2.166000000    -2.942000000
O    -0.191000000     0.845000000    -3.687000000
O    -0.372000000     5.051000000    -0.532000000
H     0.580000000     5.118000000    -0.449000000
H    -0.526000000     4.990000000    -1.474000000
O     0.347000000    -3.081000000    -0.970000000
H    -0.140000000    -3.253000000    -1.775000000
H    -0.077000000    -2.309000000    -0.594000000
O     3.109000000     0.592000000     6.568000000
H     2.336000000     1.030000000     6.924000000
H     2.991000000    -0.329000000     6.799000000
O    -0.097000000    -1.426000000    -4.992000000
H    -0.254000000    -0.585000000    -4.563000000
H    -0.442000000    -2.076000000    -4.380000000
O    -4.261000000     0.472000000     2.622000000
H    -3.460000000     0.689000000     3.098000000
H    -4.213000000    -0.476000000     2.493000000
O     7.150000000     2.101000000     0.171000000
H     7.624000000     1.274000000     0.245000000
H     6.395000000     1.998000000     0.751000000
O     5.308000000    -3.594000000     2.484000000
H     4.639000000    -3.130000000     1.981000000
H     6.049000000    -2.989000000     2.512000000
O    -6.132000000    -1.151000000    -2.349000000
H    -6.240000000    -0.244000000    -2.635000000
H    -6.835000000    -1.627000000    -2.792000000
O     4.797000000     1.676000000     1.820000000
H     4.118000000     1.472000000     2.464000000
H     4.331000000     2.129000000     1.117000000
O    -3.631000000     2.969000000     1.500000000
H    -3.813000000     2.171000000     1.997000000
H    -2.869000000     2.748000000     0.964000000
O     1.547000000    -2.160000000    -7.114000000
H     0.967000000    -2.110000000    -6.354000000
H     1.593000000    -3.093000000    -7.319000000
O    -4.555000000    -1.030000000    -5.854000000
H    -4.564000000    -1.827000000    -5.324000000
H    -4.990000000    -1.280000000    -6.669000000
O     1.485000000    -4.820000000     0.623000000
H     1.396000000    -3.988000000     0.158000000
H     1.028000000    -5.454000000     0.069000000
O     4.434000000     0.018000000    -0.827000000
H     4.416000000     0.972000000    -0.749000000
H     4.164000000    -0.154000000    -1.729000000
O     3.697000000     3.085000000    -0.179000000
H     4.450000000     3.411000000    -0.672000000
H     2.937000000     3.448000000    -0.633000000
O     1.100000000    -4.859000000    -4.394000000
H     0.706000000    -4.037000000    -4.102000000
H     0.644000000    -5.534000000    -3.891000000
O    -1.383000000     0.865000000    -6.390000000
H    -1.274000000     0.117000000    -6.977000000
H    -0.587000000     0.872000000    -5.859000000
O     2.072000000     0.487000000    -6.873000000
H     1.708000000     0.747000000    -7.719000000
H     2.012000000    -0.468000000    -6.869000000
O     1.450000000     5.390000000    -4.184000000
H     1.919000000     4.671000000    -4.606000000
H     0.604000000     5.014000000    -3.942000000
O    -1.698000000    -2.791000000    -6.778000000
H    -1.992000000    -3.530000000    -6.245000000
H    -0.801000000    -2.626000000    -6.487000000
O     1.129000000     4.739000000    -7.331000000
H     1.255000000     4.197000000    -6.553000000
H     1.942000000     4.639000000    -7.827000000
O     3.645000000    -2.233000000     0.949000000
H     3.720000000    -1.550000000     0.284000000
H     2.992000000    -1.898000000     1.564000000
O     2.891000000     1.154000000     3.918000000
H     3.263000000     1.265000000     4.793000000
H     2.567000000     0.253000000     3.908000000
O    -3.130000000     2.442000000    -7.879000000
H    -2.640000000     3.007000000    -8.477000000
H    -2.462000000     1.899000000    -7.460000000
O    -5.820000000     1.997000000    -0.421000000
H    -5.042000000     1.779000000    -0.934000000
H    -5.624000000     1.678000000     0.460000000
O     0.499000000     1.650000000     7.334000000
H     0.317000000     1.977000000     8.214000000
H     0.597000000     2.438000000     6.800000000
O     1.945000000     4.387000000    -1.616000000
H     1.699000000     3.610000000    -2.119000000
H     2.160000000     5.043000000    -2.279000000
O     2.643000000    -1.368000000     4.170000000
H     2.508000000    -2.203000000     3.721000000
H     2.838000000    -1.612000000     5.075000000
O     3.616000000    -0.323000000    -3.359000000
H     4.160000000    -0.559000000    -4.110000000
H     2.719000000    -0.364000000    -3.691000000
O    -3.984000000    -3.084000000    -2.159000000
H    -3.889000000    -3.527000000    -1.316000000
H    -4.663000000    -2.427000000    -2.009000000
O    -3.987000000     1.682000000    -2.261000000
H    -4.408000000     1.887000000    -3.096000000
H    -3.205000000     1.186000000    -2.503000000
O    -2.451000000    -0.729000000     6.312000000
H    -3.298000000    -0.982000000     5.946000000
H    -2.659000000    -0.040000000     6.943000000
O    -2.262000000     1.306000000     3.861000000
H    -2.033000000     0.953000000     4.721000000
H    -1.421000000     1.526000000     3.461000000
O    -2.181000000     2.917000000    -4.384000000
H    -2.597000000     2.451000000    -5.109000000
H    -1.468000000     2.341000000    -4.108000000
O     1.889000000     2.903000000    -5.395000000
H     1.487000000     2.643000000    -4.566000000
H     1.863000000     2.111000000    -5.933000000
O     2.653000000    -5.919000000     5.009000000
H     2.121000000    -5.184000000     4.703000000
H     3.331000000    -5.514000000     5.550000000
O    -4.704000000    -1.986000000     1.900000000
H    -5.589000000    -2.188000000     1.598000000
H    -4.140000000    -2.580000000     1.404000000
O    -0.981000000     2.728000000     0.742000000
H    -0.984000000     3.620000000     0.395000000
H    -0.416000000     2.240000000     0.143000000
O    -0.902000000     4.986000000    -3.053000000
H    -1.655000000     5.366000000    -2.601000000
H    -1.277000000     4.305000000    -3.612000000
O     4.644000000     4.158000000    -4.110000000
H     3.930000000     3.579000000    -3.843000000
H     4.907000000     4.601000000    -3.303000000
O     6.887000000    -0.403000000     2.600000000
H     7.005000000     0.313000000     3.225000000
H     6.025000000    -0.245000000     2.215000000
O    -1.326000000    -3.672000000    -3.253000000
H    -2.168000000    -3.378000000    -2.905000000
H    -1.556000000    -4.233000000    -3.994000000
O    -3.277000000    -3.869000000     0.522000000
H    -2.833000000    -4.605000000     0.100000000
H    -3.493000000    -4.191000000     1.398000000
O     1.405000000    -3.981000000     3.356000000
H     1.450000000    -4.373000000     2.484000000
H     0.480000000    -3.770000000     3.477000000
O     6.528000000    -1.632000000    -0.407000000
H     7.218000000    -0.994000000    -0.222000000
H     5.725000000    -1.113000000    -0.442000000
O    -1.032000000    -2.830000000     5.264000000
H    -1.172000000    -1.950000000     5.613000000
H    -1.606000000    -3.390000000     5.787000000
O     2.189000000    -1.830000000     6.806000000
H     1.813000000    -2.339000000     7.524000000
H     1.472000000    -1.733000000     6.179000000
O     0.082000000     2.946000000     3.329000000
H     0.052000000     2.974000000     2.372000000
H     0.900000000     2.492000000     3.529000000
