161
-3027.40071
C    -0.896000000     0.505000000    -1.108000000
H    -1.683000000     0.792000000    -1.802000000
C    -1.212000000     0.236000000     0.248000000
H    -2.279000000     0.214000000     0.453000000
C    -0.279000000    -0.160000000     1.180000000
C    -0.801000000    -0.636000000     2.520000000
H    -0.064000000    -0.750000000     3.319000000
H    -1.480000000     0.129000000     2.902000000
H    -1.474000000    -1.496000000     2.486000000
C     0.966000000    -0.328000000     0.826000000
H     1.653000000    -0.836000000     1.498000000
C     1.412000000     0.032000000    -0.469000000
H     2.409000000    -0.205000000    -0.830000000
C     0.469000000     0.392000000    -1.495000000
C     0.898000000     0.554000000    -2.881000000
O     2.124000000     0.574000000    -3.017000000
O     0.239000000     0.990000000    -3.822000000
O     3.070000000    -3.636000000     0.219000000
H     2.645000000    -3.758000000     1.068000000
H     2.395000000    -3.861000000    -0.421000000
O     3.024000000     0.802000000     5.142000000
H     2.084000000     0.719000000     4.983000000
H     3.244000000     0.041000000     5.679000000
O    -0.412000000    -1.290000000    -5.272000000
H    -0.116000000    -0.624000000    -4.652000000
H    -1.219000000    -1.633000000    -4.888000000
O    -1.843000000    -4.851000000     2.684000000
H    -0.958000000    -4.726000000     2.342000000
H    -1.869000000    -4.322000000     3.481000000
O    -4.064000000     1.701000000     2.070000000
H    -3.439000000     1.906000000     2.766000000
H    -3.823000000     0.820000000     1.784000000
O     7.432000000    -2.373000000    -0.298000000
H     7.979000000    -2.589000000     0.457000000
H     6.652000000    -1.966000000     0.080000000
O     4.837000000     3.782000000     0.955000000
H     3.960000000     3.463000000     1.170000000
H     4.689000000     4.477000000     0.314000000
O    -3.803000000     3.853000000     0.174000000
H    -3.636000000     3.074000000     0.704000000
H    -2.953000000     4.068000000    -0.210000000
O     1.900000000    -1.181000000    -6.725000000
H     1.586000000    -1.336000000    -5.834000000
H     2.807000000    -1.486000000    -6.716000000
O     6.170000000     1.809000000    -0.578000000
H     6.091000000     2.620000000    -0.076000000
H     5.334000000     1.729000000    -1.037000000
O    -0.704000000    -3.532000000    -7.078000000
H    -1.314000000    -3.914000000    -6.447000000
H    -0.592000000    -2.628000000    -6.784000000
O     0.315000000    -0.483000000    -8.709000000
H     0.665000000     0.408000000    -8.690000000
H     0.731000000    -0.920000000    -7.966000000
O    -4.611000000     2.603000000    -4.378000000
H    -4.748000000     1.854000000    -3.799000000
H    -4.893000000     2.294000000    -5.240000000
O     4.909000000     3.990000000    -6.032000000
H     4.417000000     4.087000000    -5.216000000
H     5.325000000     3.131000000    -5.960000000
O    -5.153000000    -3.729000000     0.207000000
H    -4.338000000    -3.571000000    -0.270000000
H    -5.015000000    -4.570000000     0.644000000
O     2.297000000     1.237000000    -7.845000000
H     2.207000000     1.446000000    -6.915000000
H     2.287000000     0.280000000    -7.877000000
O     3.831000000    -1.557000000    -3.295000000
H     4.573000000    -1.420000000    -2.707000000
H     3.234000000    -0.835000000    -3.099000000
O     0.476000000     4.250000000    -8.318000000
H     0.641000000     3.665000000    -7.579000000
H     1.335000000     4.373000000    -8.722000000
O     4.979000000    -1.419000000     0.513000000
H     4.697000000    -1.158000000     1.390000000
H     4.310000000    -2.039000000     0.221000000
O     5.085000000     0.877000000    -5.024000000
H     5.855000000     1.199000000    -4.555000000
H     4.891000000     0.033000000    -4.615000000
O     4.558000000    -0.137000000     2.927000000
H     4.135000000     0.391000000     3.605000000
H     4.401000000    -1.042000000     3.196000000
O    -4.628000000     1.543000000    -1.609000000
H    -5.484000000     1.905000000    -1.380000000
H    -4.105000000     2.304000000    -1.861000000
O     0.208000000     2.193000000     6.665000000
H     0.766000000     2.866000000     7.053000000
H    -0.684000000     2.474000000     6.868000000
O     3.366000000    -4.301000000    -3.187000000
H     4.080000000    -4.381000000    -2.555000000
H     3.245000000    -3.357000000    -3.295000000
O     1.373000000     3.906000000    -1.568000000
H     2.239000000     3.498000000    -1.584000000
H     1.462000000     4.678000000    -2.127000000
O     3.710000000    -2.877000000     3.828000000
H     3.897000000    -2.920000000     4.766000000
H     3.217000000    -3.676000000     3.645000000
O     4.616000000    -2.345000000    -6.495000000
H     4.559000000    -1.976000000    -5.613000000
H     4.637000000    -3.292000000    -6.357000000
O     3.744000000     2.285000000    -1.993000000
H     3.822000000     2.874000000    -2.744000000
H     3.149000000     1.596000000    -2.290000000
O    -4.388000000    -1.093000000    -1.980000000
H    -5.235000000    -1.288000000    -2.380000000
H    -4.487000000    -0.208000000    -1.628000000
O    -1.742000000     2.871000000    -3.907000000
H    -2.333000000     2.528000000    -4.578000000
H    -0.973000000     2.302000000    -3.952000000
O    -2.391000000    -0.194000000     6.411000000
H    -2.451000000     0.723000000     6.144000000
H    -2.743000000    -0.683000000     5.667000000
O    -2.139000000     2.962000000     3.753000000
H    -1.555000000     3.657000000     3.449000000
H    -2.133000000     3.044000000     4.706000000
O    -2.133000000    -3.671000000     5.162000000
H    -2.618000000    -4.496000000     5.143000000
H    -2.810000000    -2.995000000     5.143000000
O     0.191000000    -0.791000000     6.642000000
H     0.287000000     0.153000000     6.765000000
H    -0.738000000    -0.915000000     6.447000000
O    -0.775000000     1.378000000    -6.759000000
H    -1.233000000     0.542000000    -6.666000000
H    -0.142000000     1.386000000    -6.042000000
O     2.458000000     2.050000000    -5.357000000
H     2.030000000     1.630000000    -4.610000000
H     3.352000000     1.710000000    -5.342000000
O    -4.731000000    -1.227000000     1.651000000
H    -5.571000000    -1.057000000     1.225000000
H    -4.286000000    -1.841000000     1.067000000
O    -2.583000000     5.484000000    -4.720000000
H    -2.319000000     4.596000000    -4.479000000
H    -3.141000000     5.368000000    -5.489000000
O    -1.333000000     4.586000000    -1.185000000
H    -0.476000000     4.169000000    -1.272000000
H    -1.829000000     4.274000000    -1.942000000
O    -0.618000000     4.952000000     1.829000000
H    -1.113000000     4.810000000     1.022000000
H    -0.008000000     5.657000000     1.614000000
O    -2.897000000    -1.952000000    -4.545000000
H    -3.460000000    -1.652000000    -3.831000000
H    -3.119000000    -2.876000000    -4.654000000
O    -2.371000000    -2.690000000    -0.764000000
H    -2.562000000    -1.978000000    -1.374000000
H    -1.698000000    -2.335000000    -0.183000000
O    -6.636000000     1.874000000     3.069000000
H    -6.823000000     1.038000000     3.497000000
H    -5.821000000     1.722000000     2.591000000
O     6.541000000    -0.409000000    -2.790000000
H     7.466000000    -0.562000000    -2.985000000
H     6.528000000    -0.176000000    -1.862000000
O     0.746000000    -3.811000000     5.153000000
H     0.113000000    -3.312000000     4.637000000
H     0.239000000    -4.151000000     5.890000000
O     2.840000000    -1.533000000     6.896000000
H     2.996000000    -2.340000000     7.387000000
H     1.887000000    -1.473000000     6.830000000
O    -4.109000000    -2.020000000     4.488000000
H    -4.352000000    -1.665000000     3.633000000
H    -4.674000000    -2.785000000     4.599000000
O     2.165000000     3.135000000     1.661000000
H     1.454000000     3.560000000     1.181000000
H     2.118000000     2.217000000     1.394000000
