161
-3024.36583
C     0.757000000     0.143000000    -1.247000000
H     1.159000000    -0.023000000    -2.244000000
C     0.653000000    -1.021000000    -0.456000000
H     0.996000000    -1.973000000    -0.854000000
C    -0.020000000    -0.990000000     0.745000000
C    -0.256000000    -2.248000000     1.568000000
H     0.456000000    -2.963000000     1.150000000
H     0.054000000    -1.998000000     2.585000000
H    -1.310000000    -2.524000000     1.495000000
C    -0.660000000     0.149000000     1.081000000
H    -1.213000000     0.152000000     2.017000000
C    -0.491000000     1.294000000     0.316000000
H    -0.922000000     2.234000000     0.651000000
C     0.115000000     1.282000000    -0.928000000
C     0.198000000     2.509000000    -1.776000000
O    -0.578000000     3.374000000    -1.488000000
O     1.062000000     2.608000000    -2.611000000
O    -3.605000000     3.738000000     0.743000000
H    -4.271000000     4.407000000     0.586000000
H    -2.773000000     4.205000000     0.656000000
O     3.636000000     2.442000000     1.144000000
H     2.993000000     3.078000000     0.831000000
H     3.708000000     1.804000000     0.434000000
O     1.724000000    -4.452000000    -1.154000000
H     0.962000000    -5.029000000    -1.114000000
H     2.346000000    -4.832000000    -0.534000000
O     0.878000000    -2.226000000    -5.350000000
H     0.568000000    -1.346000000    -5.137000000
H     0.090000000    -2.702000000    -5.609000000
O    -3.318000000     5.341000000     4.011000000
H    -4.154000000     4.945000000     3.766000000
H    -2.963000000     5.678000000     3.188000000
O    -3.766000000    -1.965000000     4.907000000
H    -3.033000000    -1.538000000     5.350000000
H    -4.545000000    -1.556000000     5.285000000
O     4.242000000    -2.541000000     4.473000000
H     3.707000000    -1.788000000     4.220000000
H     4.779000000    -2.222000000     5.198000000
O    -5.056000000    -5.025000000    -1.818000000
H    -5.763000000    -4.381000000    -1.820000000
H    -4.676000000    -4.962000000    -0.942000000
O     1.539000000     4.506000000     3.125000000
H     1.995000000     5.185000000     3.621000000
H     1.979000000     4.494000000     2.275000000
O    -3.999000000    -5.096000000     0.581000000
H    -4.095000000    -4.485000000     1.311000000
H    -3.161000000    -5.531000000     0.742000000
O    -5.572000000     1.124000000     3.740000000
H    -5.366000000     0.557000000     4.483000000
H    -4.733000000     1.515000000     3.497000000
O    -1.416000000    -6.146000000     1.248000000
H    -1.232000000    -5.779000000     0.384000000
H    -0.646000000    -6.677000000     1.451000000
O     3.601000000     0.479000000     3.542000000
H     3.690000000     1.233000000     2.960000000
H     2.806000000     0.657000000     4.046000000
O    -0.941000000     1.402000000    -7.569000000
H    -0.767000000     2.274000000    -7.924000000
H    -0.687000000     1.464000000    -6.648000000
O    -1.189000000    -0.429000000    -4.310000000
H    -2.077000000    -0.729000000    -4.115000000
H    -1.136000000     0.439000000    -3.908000000
O    -3.266000000     1.728000000    -4.567000000
H    -3.196000000     2.075000000    -3.678000000
H    -3.673000000     0.869000000    -4.457000000
O     0.908000000     1.796000000    -5.173000000
H     1.296000000     2.566000000    -5.587000000
H     1.063000000     1.922000000    -4.237000000
O    -3.406000000     7.105000000    -1.642000000
H    -4.088000000     7.734000000    -1.879000000
H    -3.824000000     6.529000000    -1.002000000
O     2.655000000     4.452000000    -0.625000000
H     2.031000000     4.081000000    -1.249000000
H     3.322000000     4.868000000    -1.172000000
O     3.343000000    -3.630000000     2.239000000
H     3.850000000    -3.210000000     2.934000000
H     3.114000000    -2.916000000     1.645000000
O     0.814000000    -7.727000000     2.003000000
H     0.887000000    -8.682000000     2.004000000
H     1.301000000    -7.449000000     2.778000000
O    -0.825000000    -5.457000000    -1.296000000
H    -1.175000000    -4.612000000    -1.579000000
H    -0.931000000    -6.028000000    -2.057000000
O     1.603000000    -3.864000000     6.901000000
H     1.059000000    -3.445000000     7.567000000
H     1.004000000    -4.444000000     6.432000000
O    -1.604000000     5.356000000    -0.084000000
H    -1.066000000     4.646000000    -0.432000000
H    -1.958000000     5.791000000    -0.859000000
O    -0.900000000     7.008000000     1.927000000
H    -0.080000000     7.267000000     1.507000000
H    -1.324000000     6.433000000     1.290000000
O     1.672000000     6.641000000     1.071000000
H     2.273000000     7.230000000     0.615000000
H     1.490000000     5.947000000     0.438000000
O     3.242000000    -1.816000000     0.123000000
H     2.784000000    -2.575000000    -0.239000000
H     2.769000000    -1.062000000    -0.230000000
O     1.964000000    -4.556000000    -3.952000000
H     1.907000000    -4.343000000    -3.020000000
H     1.743000000    -3.739000000    -4.398000000
O    -2.979000000     2.289000000    -2.052000000
H    -3.364000000     2.617000000    -1.239000000
H    -2.073000000     2.597000000    -2.029000000
O    -0.995000000    -2.499000000     6.214000000
H    -0.852000000    -3.435000000     6.073000000
H    -0.372000000    -2.071000000     5.627000000
O     1.144000000     1.636000000     4.602000000
H     0.297000000     1.191000000     4.576000000
H     0.986000000     2.477000000     4.173000000
O     1.357000000     4.812000000    -3.958000000
H     1.944000000     4.554000000    -4.668000000
H     1.331000000     4.051000000    -3.379000000
O     4.122000000     1.137000000    -1.149000000
H     3.877000000     0.952000000    -2.056000000
H     5.056000000     0.934000000    -1.108000000
O    -4.314000000    -4.759000000     5.835000000
H    -4.796000000    -5.336000000     5.243000000
H    -3.893000000    -4.121000000     5.258000000
O     1.631000000    -7.826000000    -0.773000000
H     2.193000000    -8.517000000    -0.424000000
H     1.073000000    -7.576000000    -0.037000000
O    -1.545000000     0.673000000     4.819000000
H    -2.000000000     0.980000000     5.603000000
H    -1.973000000     1.133000000     4.098000000
O    -0.927000000     6.380000000    -4.324000000
H    -1.621000000     5.730000000    -4.214000000
H    -0.115000000     5.881000000    -4.234000000
O     3.638000000    -5.697000000     0.507000000
H     3.218000000    -6.426000000     0.963000000
H     3.717000000    -5.013000000     1.171000000
O    -4.596000000     0.096000000    -0.132000000
H    -4.218000000     0.541000000    -0.891000000
H    -3.844000000    -0.287000000     0.320000000
O    -0.562000000     8.136000000    -1.838000000
H    -1.459000000     7.805000000    -1.801000000
H    -0.450000000     8.617000000    -1.018000000
O    -0.928000000     3.898000000     3.945000000
H    -1.425000000     4.663000000     4.236000000
H    -0.166000000     4.265000000     3.497000000
O     3.329000000     0.610000000    -3.866000000
H     2.576000000     0.501000000    -4.447000000
H     4.058000000     0.210000000    -4.340000000
O    -4.530000000    -3.575000000     2.970000000
H    -4.017000000    -4.317000000     3.292000000
H    -4.222000000    -2.830000000     3.486000000
O    -2.681000000    -5.564000000     3.680000000
H    -2.041000000    -5.649000000     2.974000000
H    -2.966000000    -6.461000000     3.854000000
O     5.712000000    -1.288000000    -0.802000000
H     6.355000000    -1.340000000    -0.094000000
H     4.867000000    -1.241000000    -0.355000000
O    -0.593000000    -5.103000000     5.945000000
H     0.023000000    -5.803000000     6.162000000
H    -1.244000000    -5.522000000     5.383000000
O     3.781000000     3.520000000    -4.867000000
H     4.599000000     3.965000000    -4.643000000
H     3.701000000     2.824000000    -4.214000000
O    -3.019000000     2.088000000     3.246000000
H    -3.359000000     2.335000000     2.386000000
H    -2.537000000     2.859000000     3.543000000
