161
-3083.52462
C    -0.558000000    -0.587000000    -1.233000000
H    -0.899000000    -1.155000000    -2.095000000
C     0.098000000    -1.293000000    -0.256000000
H     0.327000000    -2.326000000    -0.502000000
C     0.534000000    -0.583000000     0.862000000
C     1.495000000    -1.315000000     1.854000000
H     2.455000000    -1.678000000     1.484000000
H     1.738000000    -0.742000000     2.751000000
H     0.961000000    -2.157000000     2.299000000
C     0.130000000     0.657000000     1.107000000
H     0.263000000     1.062000000     2.107000000
C    -0.573000000     1.412000000     0.133000000
H    -0.864000000     2.440000000     0.333000000
C    -0.811000000     0.793000000    -1.095000000
C    -1.357000000     1.610000000    -2.247000000
O    -1.038000000     2.830000000    -2.286000000
O    -1.901000000     1.040000000    -3.210000000
O     2.131000000     3.400000000     0.775000000
H     2.543000000     3.974000000     1.421000000
H     1.325000000     3.855000000     0.532000000
O    -4.688000000     3.689000000    -5.420000000
H    -4.439000000     4.473000000    -5.910000000
H    -4.030000000     3.621000000    -4.728000000
O     2.703000000    -4.352000000     4.441000000
H     3.118000000    -5.185000000     4.215000000
H     1.764000000    -4.533000000     4.399000000
O    -2.457000000    -4.083000000     3.458000000
H    -2.554000000    -3.184000000     3.774000000
H    -3.354000000    -4.413000000     3.398000000
O     5.751000000    -0.754000000     3.680000000
H     5.359000000    -1.146000000     4.460000000
H     6.054000000     0.106000000     3.970000000
O     1.341000000     1.821000000    -6.152000000
H     1.010000000     1.149000000    -5.556000000
H     0.825000000     1.708000000    -6.950000000
O    -3.852000000     6.789000000    -3.714000000
H    -3.790000000     5.835000000    -3.663000000
H    -3.173000000     7.041000000    -4.339000000
O     2.700000000     3.354000000    -2.193000000
H     3.318000000     3.513000000    -2.907000000
H     1.849000000     3.606000000    -2.553000000
O    -0.024000000     4.873000000    -7.171000000
H     0.687000000     5.487000000    -7.356000000
H     0.148000000     4.568000000    -6.280000000
O    -3.033000000    -1.408000000    -3.586000000
H    -3.948000000    -1.162000000    -3.727000000
H    -2.630000000    -0.625000000    -3.211000000
O     0.174000000    -5.147000000    -2.391000000
H    -0.312000000    -5.835000000    -2.845000000
H    -0.181000000    -4.331000000    -2.743000000
O    -1.231000000     6.430000000     1.102000000
H    -0.599000000     6.570000000     1.807000000
H    -0.726000000     6.010000000     0.406000000
O    -1.420000000    -1.685000000     5.074000000
H    -1.066000000    -0.854000000     5.388000000
H    -0.706000000    -2.311000000     5.193000000
O     2.320000000     0.038000000    -2.483000000
H     2.432000000    -0.901000000    -2.633000000
H     1.982000000     0.099000000    -1.590000000
O    -4.472000000     0.419000000    -0.255000000
H    -3.819000000    -0.173000000     0.118000000
H    -5.039000000     0.646000000     0.483000000
O     0.199000000     0.145000000    -4.411000000
H    -0.703000000     0.406000000    -4.226000000
H     0.653000000     0.244000000    -3.574000000
O     2.005000000    -1.528000000    -5.902000000
H     1.536000000    -0.740000000    -5.627000000
H     2.149000000    -2.016000000    -5.092000000
O    -2.980000000     4.474000000     1.591000000
H    -2.603000000     5.272000000     1.221000000
H    -2.334000000     4.179000000     2.232000000
O     0.661000000     3.950000000    -4.478000000
H     0.094000000     3.451000000    -3.890000000
H     1.046000000     3.292000000    -5.056000000
O     6.615000000    -0.779000000     1.097000000
H     6.775000000     0.163000000     1.043000000
H     6.413000000    -0.936000000     2.019000000
O     0.085000000     4.856000000    -0.745000000
H    -0.098000000     4.058000000    -1.241000000
H    -0.129000000     5.568000000    -1.348000000
O     4.157000000    -1.690000000     0.063000000
H     4.892000000    -1.666000000     0.675000000
H     3.953000000    -0.770000000    -0.104000000
O     5.042000000    -4.897000000     1.687000000
H     5.686000000    -4.440000000     2.227000000
H     4.476000000    -5.344000000     2.315000000
O    -4.398000000    -3.932000000    -0.725000000
H    -4.477000000    -4.094000000    -1.665000000
H    -3.856000000    -3.146000000    -0.662000000
O     4.572000000    -3.034000000     5.954000000
H     3.896000000    -3.253000000     5.311000000
H     4.506000000    -3.724000000     6.614000000
O    -3.281000000     4.052000000    -3.172000000
H    -2.353000000     3.830000000    -3.255000000
H    -3.445000000     4.045000000    -2.229000000
O    -1.972000000     1.204000000    -5.799000000
H    -2.867000000     1.058000000    -6.106000000
H    -2.035000000     1.156000000    -4.845000000
O     3.172000000    -4.780000000    -0.375000000
H     2.450000000    -4.765000000     0.252000000
H     3.908000000    -4.390000000     0.097000000
O     4.153000000     1.179000000     2.781000000
H     4.576000000     0.321000000     2.750000000
H     3.738000000     1.273000000     1.924000000
O    -0.985000000     2.223000000    -8.030000000
H    -0.740000000     3.111000000    -7.768000000
H    -1.431000000     1.862000000    -7.264000000
O     5.103000000     3.432000000     3.461000000
H     6.028000000     3.251000000     3.629000000
H     4.722000000     2.575000000     3.268000000
O     0.730000000    -3.070000000     6.088000000
H     0.922000000    -2.685000000     6.944000000
H     1.590000000    -3.271000000     5.718000000
O    -0.094000000     6.272000000    -3.224000000
H     0.260000000     5.636000000    -3.846000000
H    -0.566000000     6.902000000    -3.769000000
O     3.457000000     1.297000000    -0.194000000
H     2.970000000     1.996000000     0.242000000
H     3.244000000     1.400000000    -1.122000000
O    -4.875000000     1.740000000     2.135000000
H    -3.986000000     1.977000000     2.398000000
H    -5.332000000     2.577000000     2.054000000
O    -2.793000000    -1.368000000     1.523000000
H    -2.032000000    -0.820000000     1.330000000
H    -2.423000000    -2.167000000     1.899000000
O    -2.753000000     1.719000000     3.877000000
H    -2.113000000     1.122000000     4.265000000
H    -3.055000000     2.255000000     4.610000000
O     2.815000000    -2.652000000    -2.334000000
H     2.179000000    -3.209000000    -1.884000000
H     3.457000000    -2.429000000    -1.661000000
O    -0.874000000    -3.238000000    -3.955000000
H    -0.883000000    -3.285000000    -4.911000000
H    -1.536000000    -2.582000000    -3.741000000
O    -4.201000000     3.387000000    -0.552000000
H    -3.756000000     3.630000000     0.259000000
H    -4.124000000     2.433000000    -0.591000000
O    -0.120000000     0.678000000     5.521000000
H     0.533000000     0.953000000     4.877000000
H    -0.096000000     1.359000000     6.193000000
O     0.452000000    -5.512000000     3.636000000
H     0.392000000    -5.676000000     2.695000000
H    -0.360000000    -5.052000000     3.851000000
O     3.024000000    -0.480000000     5.977000000
H     2.474000000     0.040000000     5.391000000
H     2.721000000    -0.251000000     6.856000000
O    -5.359000000    -0.134000000    -2.763000000
H    -5.866000000     0.523000000    -3.239000000
H    -5.200000000     0.261000000    -1.906000000
O    -3.996000000    -4.056000000    -3.230000000
H    -3.594000000    -3.264000000    -3.585000000
H    -4.825000000    -4.136000000    -3.701000000
O     2.448000000    -6.666000000    -2.207000000
H     2.936000000    -6.048000000    -1.661000000
H     1.616000000    -6.226000000    -2.381000000
O     1.936000000     1.705000000     4.333000000
H     2.264000000     2.368000000     4.940000000
H     2.716000000     1.389000000     3.877000000
O     0.592000000    -5.163000000     0.679000000
H     0.709000000    -5.227000000    -0.269000000
H    -0.319000000    -5.418000000     0.825000000
