161
-3070.20220
C    -1.189000000     0.400000000    -0.723000000
H    -2.079000000     0.564000000    -1.326000000
C    -0.485000000    -0.796000000    -0.919000000
H    -0.897000000    -1.422000000    -1.706000000
C     0.591000000    -1.103000000    -0.148000000
C     1.427000000    -2.305000000    -0.565000000
H     1.723000000    -2.753000000     0.386000000
H     0.805000000    -2.933000000    -1.206000000
H     2.385000000    -2.101000000    -1.047000000
C     0.931000000    -0.224000000     0.851000000
H     1.620000000    -0.598000000     1.604000000
C     0.295000000     1.016000000     1.013000000
H     0.591000000     1.677000000     1.824000000
C    -0.834000000     1.350000000     0.223000000
C    -1.441000000     2.714000000     0.484000000
O    -0.859000000     3.633000000     1.056000000
O    -2.587000000     2.888000000     0.191000000
O     2.711000000     1.246000000     5.020000000
H     1.875000000     1.514000000     5.400000000
H     3.316000000     1.225000000     5.761000000
O     0.751000000    -3.027000000    -5.281000000
H     1.665000000    -2.899000000    -5.028000000
H     0.424000000    -2.144000000    -5.454000000
O     4.558000000    -4.210000000    -3.228000000
H     5.478000000    -4.192000000    -3.492000000
H     4.585000000    -4.269000000    -2.273000000
O     2.796000000    -6.969000000    -0.663000000
H     2.899000000    -7.734000000    -0.097000000
H     1.968000000    -7.117000000    -1.119000000
O    -1.795000000     4.952000000    -2.201000000
H    -1.826000000     4.717000000    -1.274000000
H    -1.331000000     4.225000000    -2.617000000
O    -4.441000000     4.378000000     4.052000000
H    -4.351000000     4.481000000     3.105000000
H    -4.342000000     3.438000000     4.202000000
O     3.343000000    -2.002000000    -4.399000000
H     3.600000000    -1.356000000    -3.741000000
H     3.585000000    -2.844000000    -4.014000000
O    -2.340000000    -0.126000000     2.384000000
H    -1.420000000    -0.089000000     2.122000000
H    -2.739000000    -0.741000000     1.768000000
O     3.680000000    -3.327000000     1.830000000
H     4.436000000    -3.708000000     2.277000000
H     4.051000000    -2.640000000     1.276000000
O     4.527000000     0.357000000     2.995000000
H     3.823000000     0.528000000     3.622000000
H     4.715000000     1.212000000     2.609000000
O     5.244000000     1.152000000    -0.491000000
H     4.323000000     1.364000000    -0.640000000
H     5.465000000     1.602000000     0.325000000
O    -1.423000000    -4.989000000     1.544000000
H    -1.679000000    -5.889000000     1.741000000
H    -0.466000000    -5.007000000     1.545000000
O    -5.048000000     1.616000000     0.746000000
H    -4.954000000     1.676000000     1.696000000
H    -4.222000000     1.956000000     0.402000000
O    -0.758000000     4.082000000     3.641000000
H    -0.824000000     3.870000000     2.710000000
H    -1.205000000     4.925000000     3.727000000
O     0.447000000    -0.018000000    -5.859000000
H     0.921000000     0.187000000    -5.053000000
H    -0.439000000     0.311000000    -5.705000000
O     1.161000000     7.665000000     1.567000000
H     1.864000000     7.567000000     0.925000000
H     0.496000000     7.033000000     1.293000000
O     0.475000000     2.609000000     5.662000000
H     0.064000000     3.030000000     6.416000000
H    -0.092000000     2.831000000     4.924000000
O    -2.792000000    -2.760000000    -5.367000000
H    -2.886000000    -1.887000000    -4.985000000
H    -3.374000000    -3.313000000    -4.846000000
O    -3.395000000     6.619000000    -0.451000000
H    -3.485000000     6.018000000    -1.191000000
H    -4.022000000     7.319000000    -0.634000000
O     4.305000000    -0.184000000    -2.888000000
H     4.313000000     0.672000000    -3.316000000
H     4.713000000    -0.031000000    -2.036000000
O     2.825000000     3.279000000     3.095000000
H     2.805000000     2.499000000     3.649000000
H     3.544000000     3.804000000     3.446000000
O    -3.067000000    -1.227000000    -3.057000000
H    -2.782000000    -2.140000000    -3.090000000
H    -3.648000000    -1.185000000    -2.297000000
O     1.850000000    -2.438000000     3.654000000
H     2.268000000    -2.517000000     4.511000000
H     2.480000000    -2.823000000     3.044000000
O    -6.439000000    -0.716000000    -2.922000000
H    -6.202000000    -0.332000000    -2.078000000
H    -7.344000000    -0.440000000    -3.065000000
O    -1.075000000     6.243000000     1.101000000
H    -0.923000000     5.300000000     1.169000000
H    -1.670000000     6.335000000     0.356000000
O    -2.486000000     0.583000000    -5.030000000
H    -3.319000000     1.055000000    -5.053000000
H    -2.382000000     0.327000000    -4.113000000
O    -2.412000000    -3.970000000    -2.511000000
H    -2.690000000    -4.590000000    -1.836000000
H    -1.512000000    -4.224000000    -2.713000000
O    -1.744000000     8.146000000     3.229000000
H    -1.670000000     7.452000000     2.574000000
H    -2.643000000     8.461000000     3.144000000
O    -2.738000000    -2.617000000     0.868000000
H    -2.241000000    -3.126000000     1.508000000
H    -2.618000000    -3.087000000     0.043000000
O     0.432000000     3.262000000    -4.311000000
H     1.255000000     3.165000000    -4.790000000
H     0.392000000     2.492000000    -3.744000000
O     1.466000000    -5.034000000     1.638000000
H     1.406000000    -5.056000000     2.593000000
H     2.205000000    -4.452000000     1.458000000
O    -4.219000000     1.628000000     3.419000000
H    -4.108000000     0.879000000     4.004000000
H    -3.327000000     1.878000000     3.178000000
O    -3.173000000    -0.418000000     5.172000000
H    -3.398000000    -1.347000000     5.231000000
H    -2.351000000    -0.401000000     4.684000000
O    -5.514000000     3.740000000    -3.150000000
H    -5.932000000     4.139000000    -2.386000000
H    -5.003000000     4.449000000    -3.540000000
O     5.028000000    -1.466000000     0.063000000
H     5.236000000    -0.536000000    -0.023000000
H     5.862000000    -1.913000000    -0.084000000
O     5.130000000     2.630000000     1.832000000
H     4.228000000     2.935000000     1.926000000
H     5.613000000     3.400000000     1.532000000
O    -0.749000000    -1.853000000     4.596000000
H    -0.643000000    -2.765000000     4.866000000
H    -0.126000000    -1.741000000     3.879000000
O     3.257000000     4.129000000    -1.631000000
H     2.656000000     4.216000000    -0.891000000
H     3.258000000     4.994000000    -2.041000000
O    -6.464000000     4.703000000    -0.589000000
H    -5.814000000     4.516000000     0.089000000
H    -7.273000000     4.313000000    -0.260000000
O     2.646000000     1.793000000    -0.600000000
H     2.707000000     2.721000000    -0.825000000
H     1.994000000     1.758000000     0.099000000
O     4.201000000    -4.758000000    -0.627000000
H     3.599000000    -5.492000000    -0.749000000
H     3.813000000    -4.246000000     0.083000000
O     1.675000000     4.094000000     0.708000000
H     1.863000000     3.760000000     1.585000000
H     0.719000000     4.125000000     0.663000000
O     1.391000000     0.547000000    -3.321000000
H     0.823000000    -0.048000000    -2.831000000
H     2.022000000     0.863000000    -2.674000000
O     5.861000000    -2.042000000     3.460000000
H     5.192000000    -2.517000000     3.955000000
H     5.520000000    -1.150000000     3.392000000
O    -7.411000000     0.935000000    -0.800000000
H    -7.732000000     1.810000000    -1.020000000
H    -6.708000000     1.090000000    -0.169000000
O     0.611000000    -5.366000000    -4.131000000
H     1.530000000    -5.616000000    -4.034000000
H     0.637000000    -4.535000000    -4.604000000
O    -4.042000000     4.755000000     1.390000000
H    -3.921000000     5.538000000     0.854000000
H    -3.487000000     4.094000000     0.976000000
O    -4.285000000    -1.065000000    -0.641000000
H    -3.875000000    -1.714000000    -0.071000000
H    -4.219000000    -0.243000000    -0.155000000
