161
-3033.42432
C     0.042000000     0.412000000    -1.425000000
H     0.209000000     0.684000000    -2.464000000
C     0.688000000    -0.720000000    -0.858000000
H     1.135000000    -1.446000000    -1.533000000
C     0.704000000    -0.833000000     0.519000000
C     1.512000000    -1.936000000     1.132000000
H     2.581000000    -1.719000000     1.176000000
H     1.090000000    -2.155000000     2.115000000
H     1.626000000    -2.868000000     0.575000000
C    -0.100000000    -0.015000000     1.314000000
H    -0.271000000    -0.185000000     2.374000000
C    -0.916000000     0.985000000     0.767000000
H    -1.634000000     1.469000000     1.423000000
C    -0.822000000     1.165000000    -0.620000000
C    -1.629000000     2.249000000    -1.271000000
O    -2.686000000     2.601000000    -0.754000000
O    -1.526000000     2.311000000    -2.476000000
O    -1.177000000     3.206000000    -5.065000000
H    -2.077000000     3.088000000    -5.370000000
H    -1.172000000     2.831000000    -4.184000000
O    -3.098000000     1.318000000    -4.449000000
H    -2.467000000     1.351000000    -3.730000000
H    -3.476000000     0.440000000    -4.396000000
O    -1.863000000     3.464000000     5.192000000
H    -1.565000000     2.845000000     5.859000000
H    -2.814000000     3.486000000     5.293000000
O    -2.448000000     6.386000000    -1.746000000
H    -3.277000000     6.477000000    -2.216000000
H    -2.115000000     5.529000000    -2.012000000
O     6.712000000    -0.459000000     0.161000000
H     6.235000000    -0.183000000     0.944000000
H     7.220000000    -1.219000000     0.446000000
O    -6.920000000     2.978000000     0.309000000
H    -6.756000000     2.782000000     1.232000000
H    -7.555000000     2.318000000     0.034000000
O    -1.595000000     0.055000000    -7.193000000
H    -0.676000000    -0.199000000    -7.108000000
H    -1.686000000     0.817000000    -6.621000000
O    -2.853000000    -1.182000000     2.668000000
H    -2.004000000    -1.619000000     2.743000000
H    -2.745000000    -0.574000000     1.937000000
O     3.591000000     0.999000000     5.644000000
H     3.245000000     0.943000000     6.535000000
H     3.586000000     0.096000000     5.328000000
O    -0.372000000    -0.968000000     5.518000000
H    -0.060000000    -0.409000000     4.807000000
H    -0.128000000    -1.854000000     5.251000000
O     1.208000000    -3.335000000     4.977000000
H     0.712000000    -3.622000000     5.744000000
H     1.938000000    -3.952000000     4.919000000
O    -3.810000000     0.279000000     0.291000000
H    -4.386000000     0.087000000    -0.449000000
H    -3.259000000     0.999000000    -0.015000000
O    -2.218000000    -1.420000000    -3.934000000
H    -1.394000000    -1.023000000    -4.215000000
H    -2.503000000    -1.939000000    -4.686000000
O    -5.795000000     4.438000000    -4.084000000
H    -5.523000000     4.022000000    -3.266000000
H    -5.572000000     5.362000000    -3.970000000
O    -1.333000000     4.514000000     2.335000000
H    -2.099000000     4.003000000     2.073000000
H    -1.302000000     4.429000000     3.288000000
O     4.364000000    -2.446000000    -1.871000000
H     5.221000000    -2.796000000    -2.114000000
H     3.786000000    -2.708000000    -2.588000000
O     0.354000000    -3.908000000    -2.519000000
H     0.051000000    -3.382000000    -1.779000000
H     1.154000000    -4.328000000    -2.203000000
O     1.632000000     3.570000000    -4.841000000
H     1.386000000     3.738000000    -3.932000000
H     0.798000000     3.466000000    -5.300000000
O     3.634000000    -1.394000000     4.041000000
H     4.149000000    -2.150000000     4.324000000
H     2.729000000    -1.708000000     4.041000000
O     4.394000000    -4.159000000     3.961000000
H     5.303000000    -3.907000000     3.797000000
H     4.434000000    -4.702000000     4.748000000
O     5.095000000    -5.607000000    -0.308000000
H     4.414000000    -5.917000000    -0.904000000
H     5.606000000    -4.987000000    -0.828000000
O    -4.647000000     6.353000000     0.953000000
H    -4.080000000     7.069000000     0.666000000
H    -4.166000000     5.558000000     0.720000000
O     2.420000000     2.357000000     2.095000000
H     3.265000000     2.425000000     1.649000000
H     1.904000000     3.081000000     1.741000000
O     1.690000000    -2.289000000    -4.474000000
H     1.296000000    -2.919000000    -3.870000000
H     2.297000000    -2.810000000    -5.000000000
O    -3.713000000    -4.329000000     2.373000000
H    -3.540000000    -4.170000000     1.446000000
H    -3.092000000    -3.764000000     2.833000000
O    -0.516000000    -4.332000000     0.343000000
H    -0.925000000    -5.143000000     0.041000000
H    -0.931000000    -3.646000000    -0.180000000
O     2.291000000    -0.844000000     7.234000000
H     1.591000000    -1.138000000     6.652000000
H     1.850000000    -0.652000000     8.061000000
O    -1.562000000    -4.919000000    -4.461000000
H    -0.871000000    -4.495000000    -3.952000000
H    -1.104000000    -5.579000000    -4.982000000
O     5.053000000     2.841000000     1.862000000
H     5.184000000     1.977000000     2.254000000
H     5.130000000     2.691000000     0.920000000
O    -4.990000000     1.530000000     2.495000000
H    -4.608000000     0.942000000     1.844000000
H    -5.922000000     1.309000000     2.499000000
O     0.971000000    -5.571000000     2.653000000
H     0.432000000    -5.248000000     1.931000000
H     1.849000000    -5.652000000     2.279000000
O    -1.788000000    -2.395000000    -1.198000000
H    -2.051000000    -1.537000000    -0.864000000
H    -1.897000000    -2.326000000    -2.147000000
O    -3.174000000    -0.443000000     5.477000000
H    -2.340000000    -0.041000000     5.721000000
H    -3.118000000    -0.554000000     4.528000000
O     0.402000000     4.608000000     0.604000000
H    -0.418000000     4.603000000     1.097000000
H     0.630000000     5.535000000     0.526000000
O    -1.002000000    -3.338000000     3.085000000
H    -0.923000000    -3.689000000     2.198000000
H    -0.376000000    -3.847000000     3.601000000
O    -5.621000000    -1.926000000     1.017000000
H    -4.973000000    -1.634000000     1.659000000
H    -5.294000000    -2.773000000     0.716000000
O     3.424000000     1.314000000    -4.605000000
H     2.648000000     1.851000000    -4.444000000
H     3.891000000     1.311000000    -3.769000000
O     0.746000000    -0.931000000    -6.632000000
H     0.879000000    -1.770000000    -7.074000000
H     0.953000000    -1.109000000    -5.714000000
O    -5.805000000     0.474000000    -3.483000000
H    -5.682000000     1.253000000    -2.941000000
H    -6.597000000     0.658000000    -3.989000000
O     3.466000000    -6.392000000     1.953000000
H     3.697000000    -6.103000000     2.836000000
H     4.046000000    -5.891000000     1.378000000
O    -3.626000000     3.580000000     1.482000000
H    -3.528000000     3.273000000     0.580000000
H    -4.009000000     2.837000000     1.948000000
O     1.029000000     0.908000000     4.152000000
H     1.320000000     1.595000000     3.554000000
H     1.608000000     0.988000000     4.910000000
O     3.778000000     0.364000000    -1.871000000
H     4.152000000    -0.513000000    -1.785000000
H     2.886000000     0.278000000    -1.534000000
O    -4.537000000     2.737000000    -5.901000000
H    -4.820000000     3.414000000    -5.285000000
H    -3.941000000     2.186000000    -5.394000000
O     0.643000000     4.374000000    -2.323000000
H     0.431000000     4.471000000    -1.395000000
H    -0.053000000     3.816000000    -2.671000000
O     5.391000000     0.221000000     2.591000000
H     5.888000000     0.226000000     3.409000000
H     4.511000000    -0.053000000     2.847000000
O    -5.144000000     2.764000000    -1.852000000
H    -4.231000000     2.947000000    -1.628000000
H    -5.589000000     2.696000000    -1.007000000
O    -4.838000000     2.705000000     4.866000000
H    -5.439000000     2.328000000     5.507000000
H    -4.923000000     2.142000000     4.097000000
