161
-2995.66327
C    -0.633000000     0.644000000    -1.175000000
H    -0.952000000     1.110000000    -2.104000000
C    -0.009000000    -0.610000000    -1.187000000
H     0.037000000    -1.099000000    -2.156000000
C     0.432000000    -1.189000000     0.004000000
C     1.312000000    -2.401000000     0.061000000
H     2.296000000    -2.185000000    -0.359000000
H     1.402000000    -2.762000000     1.088000000
H     0.990000000    -3.195000000    -0.616000000
C     0.275000000    -0.461000000     1.152000000
H     0.558000000    -0.934000000     2.089000000
C    -0.412000000     0.798000000     1.184000000
H    -0.695000000     1.260000000     2.127000000
C    -0.771000000     1.362000000     0.025000000
C    -1.160000000     2.835000000    -0.016000000
O    -1.553000000     3.410000000     0.961000000
O    -1.122000000     3.411000000    -1.085000000
O     0.500000000     1.304000000    -4.892000000
H     1.313000000     1.296000000    -5.397000000
H     0.075000000     0.474000000    -5.110000000
O    -1.249000000     3.224000000    -3.778000000
H    -1.059000000     3.516000000    -2.887000000
H    -0.486000000     2.704000000    -4.028000000
O     0.002000000     4.207000000     3.220000000
H    -0.508000000     3.893000000     2.472000000
H    -0.450000000     3.851000000     3.984000000
O    -0.896000000     5.974000000    -1.794000000
H    -1.784000000     6.145000000    -2.109000000
H    -0.977000000     5.173000000    -1.276000000
O    -2.521000000     0.882000000    -4.328000000
H    -2.141000000     0.452000000    -5.094000000
H    -2.114000000     1.748000000    -4.313000000
O    -4.871000000     0.488000000     0.029000000
H    -5.320000000     1.332000000    -0.022000000
H    -4.567000000     0.324000000    -0.864000000
O     3.681000000    -4.963000000    -2.534000000
H     2.929000000    -5.551000000    -2.459000000
H     3.802000000    -4.848000000    -3.476000000
O     3.825000000    -2.868000000    -4.777000000
H     3.633000000    -2.257000000    -4.066000000
H     3.833000000    -2.323000000    -5.564000000
O    -3.767000000    -2.923000000     4.035000000
H    -3.181000000    -3.578000000     3.658000000
H    -3.717000000    -2.180000000     3.433000000
O    -0.345000000    -0.661000000     5.350000000
H     0.106000000     0.151000000     5.117000000
H     0.182000000    -1.351000000     4.946000000
O     1.124000000    -2.722000000     4.377000000
H     1.536000000    -2.778000000     3.515000000
H     1.829000000    -2.927000000     4.992000000
O    -3.726000000    -0.730000000     2.358000000
H    -4.565000000    -0.324000000     2.577000000
H    -3.436000000    -0.270000000     1.570000000
O    -4.034000000    -0.140000000    -2.350000000
H    -3.251000000     0.220000000    -2.768000000
H    -4.098000000    -1.032000000    -2.690000000
O     3.880000000     5.266000000    -0.470000000
H     2.952000000     5.255000000    -0.706000000
H     3.970000000     4.566000000     0.176000000
O    -5.066000000     3.860000000     2.554000000
H    -4.621000000     3.122000000     2.971000000
H    -4.356000000     4.411000000     2.224000000
O     1.361000000     6.003000000     4.943000000
H     1.045000000     5.202000000     4.526000000
H     1.597000000     5.734000000     5.831000000
O    -0.705000000     7.522000000    -3.973000000
H     0.095000000     8.006000000    -4.179000000
H    -0.533000000     7.128000000    -3.118000000
O     4.092000000    -0.956000000    -2.758000000
H     4.444000000    -1.476000000    -2.036000000
H     4.829000000    -0.420000000    -3.050000000
O    -0.732000000    -7.026000000    -1.888000000
H    -0.228000000    -7.512000000    -1.236000000
H    -0.072000000    -6.667000000    -2.482000000
O     2.426000000     5.896000000    -3.921000000
H     1.733000000     5.489000000    -3.400000000
H     2.287000000     5.560000000    -4.807000000
O    -1.491000000     3.502000000     5.364000000
H    -1.094000000     2.935000000     6.025000000
H    -1.970000000     2.904000000     4.791000000
O     3.614000000    -1.173000000     5.025000000
H     4.112000000    -0.365000000     5.149000000
H     3.277000000    -1.382000000     5.896000000
O     4.727000000    -2.977000000    -0.882000000
H     4.213000000    -3.742000000    -1.139000000
H     5.629000000    -3.209000000    -1.101000000
O    -3.560000000     6.169000000    -2.916000000
H    -3.689000000     5.647000000    -3.709000000
H    -4.286000000     6.792000000    -2.919000000
O    -4.875000000     6.236000000    -0.450000000
H    -4.396000000     6.231000000    -1.279000000
H    -4.281000000     5.816000000     0.172000000
O     2.588000000     1.625000000     1.398000000
H     2.157000000     0.837000000     1.728000000
H     2.645000000     1.489000000     0.453000000
O    -0.385000000    -3.809000000    -4.570000000
H     0.397000000    -4.077000000    -5.054000000
H    -1.047000000    -4.458000000    -4.806000000
O    -1.126000000    -5.241000000     1.771000000
H    -1.248000000    -6.066000000     1.301000000
H    -1.216000000    -4.566000000     1.098000000
O     4.696000000    -6.861000000     0.967000000
H     3.786000000    -6.805000000     1.258000000
H     5.000000000    -7.708000000     1.295000000
O    -3.863000000     3.603000000    -4.726000000
H    -3.086000000     3.418000000    -4.199000000
H    -3.527000000     4.061000000    -5.496000000
O    -2.233000000    -3.763000000    -2.265000000
H    -2.194000000    -4.640000000    -1.883000000
H    -1.502000000    -3.738000000    -2.882000000
O    -3.151000000     1.803000000     3.955000000
H    -2.751000000     1.319000000     3.232000000
H    -3.458000000     1.125000000     4.557000000
O     3.282000000    -5.206000000     3.852000000
H     2.414000000    -5.125000000     3.457000000
H     3.843000000    -4.648000000     3.314000000
O    -2.208000000    -2.635000000     0.184000000
H    -1.760000000    -1.837000000     0.464000000
H    -2.053000000    -2.679000000    -0.759000000
O    -3.220000000    -0.337000000     5.605000000
H    -2.280000000    -0.231000000     5.751000000
H    -3.335000000    -1.276000000     5.456000000
O     1.659000000     5.331000000     1.357000000
H     1.176000000     6.157000000     1.399000000
H     1.404000000     4.864000000     2.152000000
O    -1.558000000    -4.674000000     4.349000000
H    -0.962000000    -4.900000000     3.636000000
H    -1.010000000    -4.210000000     4.982000000
O     4.135000000     2.711000000    -2.154000000
H     3.347000000     3.251000000    -2.097000000
H     3.842000000     1.834000000    -1.905000000
O    -0.327000000    -1.198000000    -5.217000000
H    -0.343000000    -1.357000000    -6.161000000
H    -0.058000000    -2.034000000    -4.838000000
O     4.853000000    -4.097000000     1.991000000
H     4.899000000    -3.498000000     1.246000000
H     4.963000000    -4.967000000     1.605000000
O    -2.732000000     5.469000000     1.910000000
H    -2.297000000     4.660000000     1.641000000
H    -2.111000000     5.888000000     2.507000000
O     1.333000000     1.197000000     4.323000000
H     1.893000000     1.335000000     3.559000000
H     1.932000000     1.235000000     5.069000000
O     2.623000000     0.736000000    -1.288000000
H     3.040000000     0.067000000    -1.830000000
H     1.700000000     0.485000000    -1.264000000
O    -4.426000000    -3.952000000     0.875000000
H    -3.621000000    -3.439000000     0.809000000
H    -4.231000000    -4.766000000     0.411000000
O     1.428000000     4.186000000    -1.228000000
H     1.327000000     4.807000000    -0.507000000
H     0.622000000     3.670000000    -1.214000000
O     1.360000000    -6.421000000    -3.360000000
H     2.035000000    -7.082000000    -3.517000000
H     1.390000000    -5.859000000    -4.135000000
O     4.606000000    -0.749000000     2.616000000
H     5.288000000    -1.394000000     2.805000000
H     4.107000000    -0.684000000     3.430000000
O    -3.863000000     3.176000000    -1.091000000
H    -3.631000000     2.399000000    -1.600000000
H    -3.025000000     3.514000000    -0.775000000
