161
-3007.22188
C    -0.744000000     0.398000000    -1.225000000
H    -1.105000000     0.625000000    -2.225000000
C    -0.010000000    -0.760000000    -1.090000000
H    -0.213000000    -1.588000000    -1.765000000
C     0.687000000    -1.013000000     0.118000000
C     1.304000000    -2.324000000     0.262000000
H     0.916000000    -3.126000000    -0.370000000
H     2.372000000    -2.274000000     0.040000000
H     1.129000000    -2.650000000     1.290000000
C     0.652000000    -0.098000000     1.161000000
H     1.221000000    -0.272000000     2.071000000
C    -0.171000000     1.062000000     1.062000000
H    -0.344000000     1.649000000     1.961000000
C    -0.787000000     1.352000000    -0.151000000
C    -1.502000000     2.646000000    -0.319000000
O    -1.642000000     3.408000000     0.638000000
O    -1.765000000     2.964000000    -1.464000000
O     1.696000000     1.737000000    -3.781000000
H     2.253000000     1.751000000    -4.559000000
H     0.970000000     1.159000000    -4.016000000
O     0.355000000     6.871000000     3.656000000
H     1.311000000     6.907000000     3.670000000
H     0.153000000     5.955000000     3.467000000
O     2.423000000    -0.773000000     5.621000000
H     2.928000000    -0.503000000     6.387000000
H     3.077000000    -1.118000000     5.013000000
O     1.305000000    -6.866000000    -1.302000000
H     0.836000000    -6.935000000    -0.470000000
H     2.136000000    -6.449000000    -1.074000000
O     0.446000000     3.925000000    -2.643000000
H    -0.367000000     3.539000000    -2.316000000
H     0.702000000     3.362000000    -3.373000000
O    -0.184000000     4.089000000     3.126000000
H    -0.467000000     3.774000000     2.268000000
H    -0.843000000     3.754000000     3.733000000
O    -0.076000000     6.537000000    -3.746000000
H    -0.826000000     6.244000000    -3.229000000
H     0.537000000     5.802000000    -3.717000000
O     4.714000000     1.928000000     0.065000000
H     4.113000000     1.627000000    -0.617000000
H     4.373000000     1.544000000     0.872000000
O    -6.011000000     5.073000000     1.405000000
H    -5.969000000     4.135000000     1.218000000
H    -5.109000000     5.315000000     1.618000000
O    -2.058000000     1.980000000    -5.241000000
H    -2.128000000     1.987000000    -4.286000000
H    -1.364000000     1.348000000    -5.426000000
O    -4.391000000     2.609000000    -1.569000000
H    -3.477000000     2.853000000    -1.719000000
H    -4.374000000     1.655000000    -1.487000000
O    -4.375000000     0.282000000     3.767000000
H    -3.511000000     0.451000000     3.393000000
H    -4.836000000    -0.217000000     3.093000000
O    -1.930000000     0.497000000     4.646000000
H    -1.071000000     0.894000000     4.503000000
H    -1.749000000    -0.282000000     5.173000000
O     0.766000000    -3.144000000     5.065000000
H     1.346000000    -2.390000000     4.958000000
H     1.350000000    -3.902000000     5.037000000
O    -4.485000000    -0.272000000    -2.323000000
H    -4.487000000    -0.219000000    -3.278000000
H    -3.885000000    -0.990000000    -2.124000000
O    -3.282000000     5.808000000     1.340000000
H    -2.853000000     5.032000000     0.980000000
H    -2.666000000     6.522000000     1.173000000
O    -3.735000000    -1.440000000    -4.965000000
H    -3.580000000    -1.237000000    -5.888000000
H    -4.162000000    -2.296000000    -4.977000000
O    -1.264000000    -6.298000000     1.065000000
H    -0.787000000    -6.771000000     1.747000000
H    -0.705000000    -5.549000000     0.857000000
O     4.756000000    -0.293000000    -3.721000000
H     4.300000000    -0.149000000    -2.892000000
H     5.324000000     0.472000000    -3.817000000
O    -2.184000000    -6.143000000    -3.072000000
H    -1.776000000    -7.004000000    -3.163000000
H    -1.452000000    -5.528000000    -3.086000000
O    -5.737000000     2.223000000     0.922000000
H    -6.406000000     1.567000000     0.723000000
H    -5.204000000     2.267000000     0.129000000
O     0.436000000     1.333000000     5.386000000
H     1.103000000     0.647000000     5.354000000
H     0.038000000     1.240000000     6.252000000
O     3.984000000    -6.186000000    -0.539000000
H     4.649000000    -6.758000000    -0.157000000
H     4.198000000    -6.159000000    -1.472000000
O     5.453000000    -2.844000000    -2.570000000
H     5.036000000    -3.509000000    -3.118000000
H     5.415000000    -2.044000000    -3.093000000
O     1.321000000    -3.405000000    -5.655000000
H     1.742000000    -2.546000000    -5.683000000
H     1.296000000    -3.690000000    -6.568000000
O    -4.080000000     5.789000000    -3.988000000
H    -3.617000000     5.312000000    -4.678000000
H    -4.322000000     6.621000000    -4.394000000
O     3.689000000     1.140000000     2.592000000
H     2.919000000     1.657000000     2.829000000
H     4.115000000     0.949000000     3.428000000
O    -1.240000000    -2.341000000    -3.871000000
H    -1.027000000    -3.134000000    -4.363000000
H    -2.056000000    -2.028000000    -4.262000000
O    -3.493000000    -4.728000000     1.834000000
H    -2.757000000    -5.272000000     1.551000000
H    -3.197000000    -3.830000000     1.686000000
O     2.206000000    -5.762000000     1.513000000
H     2.800000000    -6.071000000     0.829000000
H     2.035000000    -6.537000000     2.049000000
O    -2.763000000     4.466000000    -5.912000000
H    -2.886000000     3.571000000    -5.596000000
H    -1.979000000     4.422000000    -6.459000000
O    -3.040000000    -2.538000000    -1.761000000
H    -3.462000000    -3.397000000    -1.798000000
H    -2.255000000    -2.634000000    -2.301000000
O    -2.934000000     3.090000000     3.567000000
H    -3.873000000     3.095000000     3.752000000
H    -2.871000000     2.794000000     2.659000000
O     3.592000000    -4.130000000     3.102000000
H     2.887000000    -4.596000000     2.655000000
H     4.197000000    -3.882000000     2.403000000
O    -2.551000000    -2.480000000     0.980000000
H    -1.861000000    -1.817000000     0.989000000
H    -2.895000000    -2.457000000     0.087000000
O    -1.830000000    -2.433000000     4.831000000
H    -1.040000000    -2.966000000     4.745000000
H    -2.549000000    -3.064000000     4.805000000
O     3.142000000     4.314000000    -2.199000000
H     2.230000000     4.295000000    -1.911000000
H     3.442000000     3.409000000    -2.107000000
O    -0.236000000     0.102000000    -4.910000000
H    -0.120000000    -0.287000000    -5.777000000
H    -0.583000000    -0.609000000    -4.373000000
O    -6.133000000     3.354000000    -3.914000000
H    -5.681000000     4.176000000    -4.101000000
H    -6.047000000     3.243000000    -2.967000000
O     5.116000000    -3.592000000     0.846000000
H     4.762000000    -3.190000000     0.053000000
H     5.884000000    -4.079000000     0.545000000
O     0.969000000     4.890000000     0.041000000
H     0.370000000     4.771000000     0.778000000
H     0.545000000     4.439000000    -0.688000000
O    -3.851000000     4.796000000     5.533000000
H    -3.281000000     4.583000000     4.795000000
H    -4.595000000     5.251000000     5.138000000
O     2.163000000     3.455000000     3.935000000
H     1.292000000     3.565000000     3.555000000
H     1.999000000     3.267000000     4.859000000
O     2.765000000     0.446000000    -1.540000000
H     2.408000000     0.922000000    -2.290000000
H     2.026000000    -0.060000000    -1.203000000
O     6.331000000    -1.342000000     2.398000000
H     5.897000000    -0.508000000     2.581000000
H     5.641000000    -1.894000000     2.031000000
O     0.375000000    -4.699000000    -3.443000000
H     1.153000000    -4.792000000    -2.893000000
H     0.716000000    -4.443000000    -4.300000000
O     5.953000000    -1.074000000    -0.473000000
H     6.124000000    -1.754000000    -1.125000000
H     6.243000000    -1.458000000     0.355000000
O    -2.221000000     5.788000000    -2.024000000
H    -3.063000000     5.597000000    -2.436000000
H    -1.862000000     4.929000000    -1.804000000
