161
-3030.64535
C    -0.253000000     0.649000000    -1.282000000
H    -0.561000000     1.125000000    -2.209000000
C     0.104000000    -0.664000000    -1.098000000
H     0.322000000    -1.277000000    -1.969000000
C     0.312000000    -1.156000000     0.152000000
C     0.646000000    -2.664000000     0.335000000
H     0.713000000    -3.001000000     1.371000000
H    -0.096000000    -3.166000000    -0.290000000
H     1.608000000    -2.901000000    -0.124000000
C     0.445000000    -0.273000000     1.247000000
H     0.773000000    -0.662000000     2.208000000
C    -0.086000000     1.004000000     1.105000000
H    -0.178000000     1.650000000     1.975000000
C    -0.533000000     1.433000000    -0.140000000
C    -0.979000000     2.880000000    -0.384000000
O    -1.486000000     3.537000000     0.512000000
O    -0.744000000     3.491000000    -1.409000000
O     0.014000000     3.825000000    -5.375000000
H     0.218000000     2.902000000    -5.526000000
H    -0.768000000     3.809000000    -4.822000000
O     3.687000000    -1.111000000     5.581000000
H     3.973000000    -0.911000000     6.472000000
H     4.200000000    -0.523000000     5.027000000
O     1.058000000    -5.772000000    -1.669000000
H     1.350000000    -5.402000000    -0.835000000
H     1.593000000    -6.558000000    -1.782000000
O     1.843000000     2.931000000    -2.323000000
H     0.929000000     3.139000000    -2.126000000
H     2.290000000     3.777000000    -2.302000000
O    -3.402000000     7.056000000     2.428000000
H    -3.284000000     6.782000000     1.519000000
H    -3.742000000     6.279000000     2.871000000
O     1.459000000     7.736000000    -1.828000000
H     0.658000000     7.290000000    -1.552000000
H     1.659000000     8.335000000    -1.109000000
O    -5.960000000     4.852000000     1.565000000
H    -6.464000000     4.216000000     1.057000000
H    -5.157000000     4.980000000     1.060000000
O    -1.921000000     4.208000000    -3.727000000
H    -1.550000000     3.779000000    -2.956000000
H    -2.830000000     3.910000000    -3.752000000
O    -4.199000000     2.816000000    -1.823000000
H    -4.005000000     3.398000000    -1.089000000
H    -3.959000000     1.944000000    -1.508000000
O    -3.392000000    -0.498000000     1.607000000
H    -2.974000000    -1.202000000     2.103000000
H    -4.319000000    -0.561000000     1.838000000
O     0.385000000    -5.787000000     1.618000000
H     1.135000000    -5.332000000     1.234000000
H     0.081000000    -5.203000000     2.313000000
O    -3.159000000    -2.964000000     3.452000000
H    -3.416000000    -3.792000000     3.858000000
H    -2.251000000    -3.102000000     3.183000000
O     1.430000000    -2.228000000     4.138000000
H     1.972000000    -1.681000000     4.706000000
H     2.048000000    -2.837000000     3.732000000
O     3.604000000     1.448000000    -4.265000000
H     2.744000000     1.800000000    -4.034000000
H     4.223000000     1.980000000    -3.764000000
O    -3.654000000    -0.670000000    -5.043000000
H    -3.877000000    -0.804000000    -4.121000000
H    -3.457000000    -1.548000000    -5.371000000
O    -3.317000000     5.680000000     0.014000000
H    -2.531000000     5.152000000     0.153000000
H    -3.069000000     6.304000000    -0.668000000
O     0.565000000    -8.210000000     2.997000000
H     0.294000000    -7.299000000     2.889000000
H     1.290000000    -8.172000000     3.620000000
O     3.259000000    -1.939000000    -3.667000000
H     2.542000000    -2.562000000    -3.789000000
H     3.270000000    -1.425000000    -4.474000000
O    -3.117000000    -6.117000000    -2.304000000
H    -2.663000000    -6.286000000    -3.130000000
H    -2.544000000    -6.489000000    -1.634000000
O     2.750000000     5.294000000    -2.320000000
H     2.337000000     6.145000000    -2.173000000
H     3.671000000     5.434000000    -2.100000000
O     2.005000000     2.217000000     5.779000000
H     1.502000000     1.635000000     5.209000000
H     1.895000000     1.848000000     6.655000000
O     3.740000000     3.524000000     0.489000000
H     3.018000000     3.081000000     0.043000000
H     4.099000000     2.862000000     1.079000000
O    -0.270000000    -1.697000000    -4.355000000
H     0.051000000    -2.596000000    -4.283000000
H    -0.965000000    -1.638000000    -3.700000000
O     2.834000000     6.033000000     1.653000000
H     1.904000000     5.939000000     1.447000000
H     3.196000000     5.156000000     1.530000000
O     2.835000000    -5.487000000     0.283000000
H     3.452000000    -5.154000000    -0.369000000
H     3.205000000    -6.327000000     0.554000000
O    -1.296000000     6.752000000    -4.692000000
H    -1.522000000     5.832000000    -4.556000000
H    -1.262000000     6.853000000    -5.643000000
O    -0.979000000    -0.705000000    -6.870000000
H    -1.045000000    -1.550000000    -7.314000000
H    -0.675000000    -0.919000000    -5.988000000
O    -2.351000000    -2.642000000    -2.382000000
H    -2.459000000    -2.638000000    -1.431000000
H    -2.057000000    -3.530000000    -2.586000000
O    -0.221000000     7.808000000     3.145000000
H     0.102000000     7.036000000     2.680000000
H    -1.040000000     7.520000000     3.548000000
O    -2.798000000     2.381000000     2.679000000
H    -2.915000000     1.512000000     2.295000000
H    -2.406000000     2.902000000     1.978000000
O     3.137000000    -3.993000000     2.938000000
H     2.986000000    -4.914000000     3.151000000
H     4.089000000    -3.913000000     2.883000000
O    -3.277000000    -0.090000000    -1.273000000
H    -3.707000000    -0.547000000    -0.550000000
H    -2.386000000    -0.439000000    -1.279000000
O    -1.190000000     2.421000000     5.017000000
H    -0.829000000     1.575000000     5.283000000
H    -1.605000000     2.249000000     4.172000000
O    -0.539000000    -4.220000000     3.811000000
H     0.132000000    -3.579000000     4.047000000
H    -0.688000000    -4.717000000     4.616000000
O    -0.265000000    -0.041000000     5.458000000
H    -0.217000000    -0.856000000     4.959000000
H    -0.057000000    -0.297000000     6.357000000
O     0.691000000     1.178000000    -5.906000000
H     0.019000000     0.958000000    -6.551000000
H     0.729000000     0.414000000    -5.330000000
O    -4.840000000     3.999000000    -4.018000000
H    -5.109000000     4.816000000    -3.598000000
H    -4.652000000     3.406000000    -3.290000000
O     4.153000000    -1.957000000     1.055000000
H     3.782000000    -1.488000000     0.308000000
H     3.454000000    -2.544000000     1.342000000
O    -1.432000000    -7.035000000    -0.354000000
H    -0.748000000    -6.513000000     0.066000000
H    -1.617000000    -7.735000000     0.271000000
O     0.226000000     5.954000000     1.033000000
H    -0.144000000     6.350000000     0.244000000
H    -0.235000000     5.119000000     1.120000000
O    -3.780000000     4.674000000     3.823000000
H    -3.686000000     3.799000000     3.446000000
H    -4.303000000     4.539000000     4.613000000
O    -1.044000000     5.104000000     4.133000000
H    -1.851000000     5.549000000     4.392000000
H    -1.340000000     4.294000000     3.717000000
O     3.850000000    -0.607000000    -1.295000000
H     3.406000000    -1.205000000    -1.896000000
H     3.280000000     0.161000000    -1.257000000
O    -3.138000000    -4.091000000     0.283000000
H    -2.984000000    -4.800000000     0.908000000
H    -3.309000000    -4.535000000    -0.547000000
O    -3.019000000     1.839000000    -6.282000000
H    -2.813000000     0.940000000    -6.028000000
H    -3.673000000     2.125000000    -5.645000000
O     0.886000000    -4.034000000    -3.744000000
H     1.010000000    -4.733000000    -3.102000000
H     1.245000000    -4.389000000    -4.557000000
O     4.536000000     1.634000000     2.115000000
H     4.952000000     1.708000000     2.974000000
H     4.605000000     0.706000000     1.894000000
O    -0.555000000     6.021000000    -1.641000000
H    -0.797000000     6.285000000    -2.528000000
H    -0.724000000     5.080000000    -1.616000000
