161
-3056.88618
C    -0.128000000     0.746000000    -1.265000000
H    -0.313000000     1.089000000    -2.280000000
C     0.404000000    -0.562000000    -1.092000000
H     0.555000000    -1.171000000    -1.980000000
C     0.477000000    -1.151000000     0.150000000
C     0.897000000    -2.531000000     0.235000000
H     1.470000000    -2.853000000    -0.637000000
H     1.514000000    -2.721000000     1.116000000
H    -0.022000000    -3.119000000     0.268000000
C     0.247000000    -0.383000000     1.283000000
H     0.337000000    -0.881000000     2.246000000
C    -0.210000000     0.963000000     1.142000000
H    -0.375000000     1.495000000     2.076000000
C    -0.501000000     1.510000000    -0.141000000
C    -1.249000000     2.824000000    -0.317000000
O    -1.449000000     3.590000000     0.647000000
O    -1.649000000     3.159000000    -1.451000000
O    -3.207000000    -1.780000000     2.336000000
H    -3.631000000    -2.476000000     1.835000000
H    -2.448000000    -2.202000000     2.739000000
O     0.354000000    -4.593000000    -2.440000000
H     0.938000000    -5.084000000    -1.861000000
H     0.921000000    -3.942000000    -2.853000000
O     1.998000000    -5.760000000    -0.855000000
H     2.361000000    -6.561000000    -1.234000000
H     2.765000000    -5.260000000    -0.575000000
O     0.743000000     3.069000000    -5.675000000
H     1.005000000     3.290000000    -4.781000000
H    -0.166000000     3.362000000    -5.738000000
O     0.750000000     4.244000000    -2.611000000
H     1.199000000     4.511000000    -1.808000000
H    -0.032000000     3.784000000    -2.306000000
O     4.153000000    -5.886000000     2.768000000
H     3.868000000    -5.299000000     3.469000000
H     3.684000000    -6.704000000     2.935000000
O    -2.347000000    -5.319000000    -1.963000000
H    -2.313000000    -6.094000000    -1.402000000
H    -1.449000000    -4.988000000    -1.968000000
O     2.607000000     1.125000000    -3.568000000
H     1.805000000     0.620000000    -3.431000000
H     2.755000000     1.570000000    -2.734000000
O     0.634000000     6.658000000    -3.847000000
H    -0.114000000     6.480000000    -4.416000000
H     0.971000000     5.792000000    -3.617000000
O    -3.928000000    -3.648000000     0.224000000
H    -3.800000000    -4.286000000    -0.478000000
H    -4.089000000    -2.821000000    -0.231000000
O     3.317000000     2.193000000    -1.005000000
H     3.065000000     1.427000000    -0.490000000
H     3.254000000     2.925000000    -0.392000000
O    -4.334000000     3.489000000    -0.623000000
H    -4.682000000     2.842000000    -1.238000000
H    -3.389000000     3.478000000    -0.774000000
O    -4.695000000     2.834000000     3.812000000
H    -3.800000000     3.166000000     3.744000000
H    -4.625000000     1.906000000     3.591000000
O    -3.502000000     7.718000000    -3.479000000
H    -2.975000000     8.468000000    -3.203000000
H    -2.990000000     6.955000000    -3.211000000
O    -2.378000000    -6.903000000     0.510000000
H    -1.554000000    -6.474000000     0.738000000
H    -3.003000000    -6.583000000     1.162000000
O     1.487000000     4.932000000     0.101000000
H     2.032000000     5.119000000     0.865000000
H     0.608000000     4.809000000     0.459000000
O     4.081000000     0.414000000     4.111000000
H     4.907000000     0.397000000     4.596000000
H     3.458000000     0.818000000     4.715000000
O    -2.088000000     1.042000000     4.159000000
H    -2.852000000     0.526000000     4.417000000
H    -1.358000000     0.424000000     4.192000000
O    -1.919000000     2.944000000    -6.207000000
H    -2.334000000     3.039000000    -5.350000000
H    -2.583000000     2.519000000    -6.750000000
O     2.679000000    -3.271000000    -3.648000000
H     3.454000000    -3.187000000    -3.092000000
H     2.877000000    -4.010000000    -4.224000000
O    -0.455000000     0.117000000    -4.866000000
H    -0.267000000     0.892000000    -5.396000000
H    -1.387000000     0.188000000    -4.659000000
O    -0.027000000     8.264000000    -0.738000000
H     0.581000000     8.261000000     0.001000000
H    -0.807000000     7.817000000    -0.409000000
O     0.147000000    -0.121000000     5.339000000
H    -0.087000000    -1.019000000     5.577000000
H     0.313000000     0.312000000     6.176000000
O    -4.744000000     5.067000000     2.165000000
H    -4.841000000     4.798000000     1.252000000
H    -4.927000000     4.274000000     2.669000000
O    -5.015000000     0.217000000     3.548000000
H    -4.429000000    -0.343000000     3.039000000
H    -5.550000000    -0.394000000     4.055000000
O     3.010000000     0.130000000     1.333000000
H     3.166000000     0.168000000     2.276000000
H     2.094000000    -0.133000000     1.251000000
O     0.940000000    -6.322000000     4.173000000
H     1.369000000    -6.511000000     3.339000000
H     1.427000000    -5.580000000     4.531000000
O     4.833000000    -2.302000000     1.242000000
H     5.711000000    -2.318000000     0.859000000
H     4.592000000    -1.376000000     1.248000000
O    -2.741000000     2.606000000    -3.778000000
H    -3.050000000     1.727000000    -3.560000000
H    -2.351000000     2.931000000    -2.967000000
O    -1.594000000     3.417000000     3.233000000
H    -1.459000000     3.469000000     2.287000000
H    -1.605000000     2.479000000     3.422000000
O    -3.229000000    -0.075000000    -3.813000000
H    -4.052000000     0.338000000    -3.551000000
H    -3.408000000    -1.015000000    -3.767000000
O     4.168000000    -4.770000000     0.381000000
H     4.299000000    -5.272000000     1.185000000
H     4.400000000    -3.872000000     0.618000000
O    -2.514000000    -1.390000000    -0.540000000
H    -1.992000000    -0.788000000    -1.071000000
H    -2.236000000    -1.218000000     0.360000000
O    -0.041000000    -5.495000000     0.943000000
H     0.748000000    -5.794000000     0.490000000
H     0.034000000    -4.541000000     0.949000000
O    -3.296000000    -5.228000000     2.636000000
H    -3.760000000    -5.243000000     3.473000000
H    -3.773000000    -4.586000000     2.109000000
O    -2.183000000     5.693000000    -2.202000000
H    -2.090000000     4.746000000    -2.096000000
H    -1.766000000     6.063000000    -1.424000000
O    -1.030000000    -3.957000000     3.352000000
H    -1.780000000    -4.536000000     3.221000000
H    -0.267000000    -4.512000000     3.186000000
O    -0.682000000    -4.045000000     6.020000000
H    -0.905000000    -4.976000000     6.031000000
H    -0.755000000    -3.793000000     5.099000000
O    -5.187000000     3.819000000    -4.735000000
H    -5.710000000     3.226000000    -4.196000000
H    -4.315000000     3.425000000    -4.747000000
O     4.287000000    -2.315000000     4.409000000
H     4.529000000    -2.440000000     3.492000000
H     4.014000000    -1.399000000     4.462000000
O    -5.088000000     6.872000000    -1.042000000
H    -4.744000000     7.130000000    -1.897000000
H    -4.759000000     5.983000000    -0.910000000
O     2.388000000     5.104000000     2.729000000
H     2.028000000     4.346000000     3.191000000
H     2.851000000     5.599000000     3.405000000
O     4.976000000    -3.029000000    -1.963000000
H     5.390000000    -2.469000000    -1.306000000
H     5.313000000    -3.906000000    -1.776000000
O     0.987000000     2.693000000     4.504000000
H     0.831000000     1.761000000     4.656000000
H     0.111000000     3.079000000     4.461000000
O     3.032000000    -4.701000000     4.915000000
H     3.616000000    -5.187000000     5.496000000
H     3.344000000    -3.797000000     4.962000000
O     0.929000000    -2.290000000    -5.565000000
H     0.643000000    -1.503000000    -5.102000000
H     1.520000000    -2.727000000    -4.952000000
O    -1.720000000     6.412000000     0.440000000
H    -1.586000000     5.468000000     0.530000000
H    -2.101000000     6.681000000     1.275000000
O    -2.494000000     6.314000000     3.046000000
H    -1.995000000     5.810000000     3.688000000
H    -3.227000000     5.745000000     2.813000000
