161
-3080.80552
C    -1.203000000     0.802000000    -0.052000000
H    -2.145000000     1.298000000    -0.273000000
C    -0.974000000    -0.350000000    -0.822000000
H    -1.662000000    -0.744000000    -1.566000000
C     0.185000000    -1.055000000    -0.548000000
C     0.384000000    -2.329000000    -1.249000000
H    -0.434000000    -2.464000000    -1.959000000
H     1.317000000    -2.285000000    -1.815000000
H     0.397000000    -3.176000000    -0.560000000
C     1.139000000    -0.612000000     0.349000000
H     2.030000000    -1.212000000     0.512000000
C     0.994000000     0.631000000     0.995000000
H     1.767000000     1.077000000     1.616000000
C    -0.268000000     1.317000000     0.835000000
C    -0.469000000     2.656000000     1.412000000
O     0.541000000     3.226000000     1.680000000
O    -1.600000000     3.217000000     1.446000000
O     6.698000000     2.581000000     1.160000000
H     6.767000000     3.126000000     0.376000000
H     6.177000000     1.827000000     0.883000000
O     2.035000000     2.236000000    -2.112000000
H     1.244000000     2.699000000    -2.387000000
H     1.846000000     1.947000000    -1.219000000
O    -1.288000000    -6.864000000    -3.757000000
H    -0.468000000    -6.475000000    -3.451000000
H    -1.876000000    -6.803000000    -3.004000000
O     5.916000000    -1.923000000     0.325000000
H     6.028000000    -1.868000000     1.274000000
H     6.310000000    -1.117000000    -0.009000000
O    -1.395000000     7.482000000     2.575000000
H    -1.154000000     7.018000000     3.377000000
H    -2.012000000     6.896000000     2.136000000
O    -1.433000000    -0.850000000     3.024000000
H    -1.661000000    -0.191000000     3.679000000
H    -0.485000000    -0.770000000     2.923000000
O     0.740000000    -2.148000000    -5.848000000
H     1.112000000    -2.995000000    -5.604000000
H     1.342000000    -1.505000000    -5.474000000
O     5.124000000    -2.407000000    -2.985000000
H     4.955000000    -1.529000000    -2.643000000
H     6.037000000    -2.581000000    -2.757000000
O     3.975000000     2.897000000     4.222000000
H     4.643000000     2.807000000     3.543000000
H     4.173000000     2.198000000     4.846000000
O     1.591000000    -2.104000000     5.241000000
H     1.943000000    -2.242000000     6.120000000
H     1.380000000    -1.171000000     5.210000000
O    -5.205000000     0.678000000    -3.405000000
H    -6.020000000     0.966000000    -2.993000000
H    -4.520000000     0.933000000    -2.786000000
O    -2.588000000    -3.913000000    -3.093000000
H    -2.254000000    -3.275000000    -3.723000000
H    -3.344000000    -4.307000000    -3.529000000
O     2.856000000    -3.202000000     3.046000000
H     2.250000000    -2.938000000     3.738000000
H     3.362000000    -3.918000000     3.431000000
O     0.876000000     5.807000000     0.609000000
H     1.721000000     6.180000000     0.857000000
H     0.834000000     4.974000000     1.079000000
O     0.961000000     0.747000000     5.156000000
H     0.161000000     1.271000000     5.132000000
H     1.670000000     1.390000000     5.127000000
O    -4.017000000     2.407000000     0.853000000
H    -4.122000000     2.501000000    -0.094000000
H    -3.128000000     2.716000000     1.028000000
O    -2.547000000    -2.731000000     1.317000000
H    -3.324000000    -2.401000000     0.866000000
H    -2.163000000    -1.958000000     1.730000000
O    -2.870000000    -6.971000000    -1.437000000
H    -3.582000000    -6.402000000    -1.145000000
H    -2.114000000    -6.695000000    -0.919000000
O     4.041000000    -3.855000000     0.828000000
H     4.619000000    -3.113000000     0.651000000
H     3.554000000    -3.598000000     1.611000000
O     4.598000000     0.907000000     0.650000000
H     4.459000000     0.374000000     1.432000000
H     4.230000000     1.762000000     0.874000000
O     3.386000000     3.286000000     1.148000000
H     2.435000000     3.186000000     1.192000000
H     3.558000000     4.128000000     1.569000000
O     3.914000000    -5.813000000    -3.616000000
H     4.438000000    -5.049000000    -3.856000000
H     3.375000000    -5.514000000    -2.883000000
O    -1.645000000    -5.024000000    -6.020000000
H    -1.786000000    -4.086000000    -5.888000000
H    -2.064000000    -5.438000000    -5.266000000
O    -0.916000000     5.669000000     4.614000000
H    -0.585000000     5.969000000     5.460000000
H    -0.239000000     5.075000000     4.289000000
O    -0.269000000     4.402000000    -1.992000000
H    -0.134000000     5.073000000    -2.661000000
H    -0.344000000     4.893000000    -1.173000000
O    -3.490000000    -4.192000000    -0.560000000
H    -2.973000000    -3.888000000    -1.305000000
H    -3.004000000    -3.890000000     0.208000000
O    -1.610000000    -4.547000000     3.220000000
H    -1.364000000    -3.793000000     3.757000000
H    -2.216000000    -4.191000000     2.571000000
O     3.777000000     5.670000000     2.378000000
H     4.656000000     5.988000000     2.587000000
H     3.202000000     6.145000000     2.977000000
O    -3.033000000     3.033000000    -1.987000000
H    -2.805000000     2.769000000    -2.879000000
H    -2.212000000     3.355000000    -1.615000000
O    -6.119000000     5.125000000     3.590000000
H    -5.766000000     5.571000000     4.360000000
H    -5.447000000     4.485000000     3.355000000
O    -5.217000000    -1.726000000     0.381000000
H    -4.882000000    -1.535000000    -0.495000000
H    -5.255000000    -0.874000000     0.815000000
O    -2.795000000     3.897000000     3.732000000
H    -2.444000000     3.631000000     2.882000000
H    -2.430000000     4.770000000     3.879000000
O     1.599000000    -4.448000000    -4.750000000
H     1.067000000    -4.379000000    -3.957000000
H     2.089000000    -5.262000000    -4.639000000
O    -0.342000000    -6.552000000    -0.013000000
H    -0.207000000    -7.470000000    -0.247000000
H     0.313000000    -6.378000000     0.663000000
O    -6.836000000     2.230000000    -0.016000000
H    -7.718000000     2.312000000     0.347000000
H    -6.387000000     1.628000000     0.578000000
O     3.950000000     0.011000000    -1.870000000
H     4.004000000    -0.052000000    -0.916000000
H     3.714000000     0.924000000    -2.037000000
O    -1.648000000     1.407000000     5.046000000
H    -2.376000000     0.926000000     5.438000000
H    -2.055000000     2.175000000     4.645000000
O     0.889000000    -5.645000000     2.544000000
H     1.641000000    -5.064000000     2.665000000
H     0.140000000    -5.133000000     2.849000000
O    -2.909000000     5.768000000     1.204000000
H    -2.910000000     4.881000000     0.846000000
H    -3.824000000     6.046000000     1.160000000
O     1.354000000     3.895000000     3.998000000
H     1.063000000     3.476000000     3.188000000
H     2.243000000     3.567000000     4.131000000
O     2.028000000    -0.035000000    -4.021000000
H     1.136000000     0.265000000    -3.847000000
H     2.499000000     0.126000000    -3.204000000
O     4.101000000    -0.566000000     2.780000000
H     3.429000000    -1.245000000     2.713000000
H     4.474000000    -0.684000000     3.653000000
O    -2.428000000     2.518000000    -4.649000000
H    -1.679000000     2.898000000    -5.108000000
H    -3.162000000     2.632000000    -5.253000000
O    -4.223000000    -1.410000000    -2.051000000
H    -4.678000000    -0.879000000    -2.704000000
H    -3.599000000    -1.929000000    -2.558000000
O     2.892000000    -4.221000000    -1.748000000
H     2.953000000    -4.108000000    -0.799000000
H     3.561000000    -3.634000000    -2.102000000
O     0.658000000    -5.547000000    -2.377000000
H     0.093000000    -5.865000000    -1.671000000
H     1.380000000    -5.109000000    -1.927000000
O    -5.741000000     0.566000000     1.987000000
H    -6.093000000     0.940000000     2.795000000
H    -5.151000000     1.239000000     1.649000000
O    -1.894000000    -2.290000000    -5.438000000
H    -2.316000000    -1.614000000    -5.968000000
H    -0.957000000    -2.118000000    -5.532000000
