161
-3073.60611
C    -1.225000000     0.739000000    -0.417000000
H    -2.098000000     1.272000000    -0.785000000
C    -0.998000000    -0.640000000    -0.653000000
H    -1.652000000    -1.320000000    -1.194000000
C     0.261000000    -1.209000000    -0.268000000
C     0.612000000    -2.605000000    -0.667000000
H     0.973000000    -2.614000000    -1.698000000
H     1.375000000    -2.901000000     0.056000000
H    -0.168000000    -3.330000000    -0.428000000
C     1.068000000    -0.426000000     0.543000000
H     1.954000000    -0.913000000     0.944000000
C     0.835000000     0.918000000     0.764000000
H     1.630000000     1.435000000     1.295000000
C    -0.304000000     1.575000000     0.296000000
C    -0.720000000     2.936000000     0.662000000
O     0.142000000     3.546000000     1.290000000
O    -1.690000000     3.534000000     0.254000000
O    -1.387000000     8.372000000    -0.936000000
H    -1.746000000     7.949000000    -1.716000000
H    -1.908000000     8.022000000    -0.213000000
O    -1.813000000     7.943000000     2.049000000
H    -1.015000000     7.607000000     2.457000000
H    -2.338000000     7.162000000     1.870000000
O     3.539000000     4.877000000    -0.883000000
H     2.970000000     4.879000000    -0.113000000
H     2.939000000     4.948000000    -1.625000000
O    -3.098000000     0.017000000     1.963000000
H    -2.491000000     0.385000000     2.605000000
H    -2.664000000     0.148000000     1.121000000
O    -0.089000000    -0.693000000    -6.057000000
H     0.701000000    -0.602000000    -5.525000000
H     0.108000000    -0.213000000    -6.862000000
O     4.082000000    -1.582000000    -0.947000000
H     4.925000000    -1.380000000    -1.354000000
H     3.774000000    -0.743000000    -0.604000000
O     4.477000000     2.877000000     3.285000000
H     3.786000000     3.470000000     2.988000000
H     5.141000000     3.453000000     3.663000000
O    -0.382000000    -3.336000000     5.058000000
H     0.256000000    -2.749000000     4.652000000
H    -0.101000000    -3.402000000     5.970000000
O     1.340000000    -1.428000000     3.868000000
H     1.435000000    -0.805000000     4.588000000
H     0.600000000    -1.096000000     3.360000000
O    -2.430000000    -0.583000000    -4.754000000
H    -1.655000000    -0.538000000    -5.313000000
H    -2.449000000     0.261000000    -4.303000000
O    -3.286000000    -2.396000000    -2.916000000
H    -2.687000000    -2.304000000    -3.657000000
H    -3.982000000    -2.968000000    -3.240000000
O     3.782000000    -2.481000000     3.013000000
H     2.975000000    -2.284000000     3.488000000
H     3.550000000    -3.209000000     2.436000000
O     0.662000000     5.688000000    -0.286000000
H     0.801000000     6.265000000     0.464000000
H     0.180000000     4.942000000     0.071000000
O     3.717000000     1.358000000     5.734000000
H     3.753000000     1.894000000     4.942000000
H     4.566000000     1.494000000     6.154000000
O    -4.113000000     3.599000000    -0.746000000
H    -4.702000000     3.587000000     0.009000000
H    -3.249000000     3.411000000    -0.380000000
O    -2.385000000    -2.928000000     1.649000000
H    -2.888000000    -3.069000000     2.452000000
H    -2.493000000    -1.997000000     1.460000000
O    -1.166000000    -6.413000000    -1.220000000
H    -1.848000000    -5.744000000    -1.161000000
H    -0.634000000    -6.283000000    -0.435000000
O    -4.420000000     6.254000000     3.025000000
H    -3.877000000     5.466000000     3.046000000
H    -4.331000000     6.581000000     2.130000000
O     1.461000000    -3.846000000    -6.903000000
H     2.175000000    -4.429000000    -7.162000000
H     1.680000000    -3.583000000    -6.009000000
O     4.438000000     2.407000000     0.478000000
H     4.655000000     1.942000000     1.286000000
H     3.768000000     3.039000000     0.739000000
O     2.599000000     4.045000000     1.956000000
H     1.795000000     3.759000000     1.522000000
H     2.490000000     4.990000000     2.063000000
O     0.900000000     0.533000000     5.581000000
H     1.773000000     0.795000000     5.872000000
H     0.455000000     0.252000000     6.380000000
O     0.295000000     6.915000000     3.612000000
H     0.456000000     7.481000000     4.366000000
H     1.040000000     7.072000000     3.031000000
O    -4.863000000     5.897000000    -2.196000000
H    -5.245000000     5.627000000    -3.031000000
H    -4.598000000     5.078000000    -1.777000000
O     1.525000000     5.849000000    -3.083000000
H     0.895000000     6.410000000    -3.535000000
H     1.144000000     5.712000000    -2.215000000
O    -2.823000000    -4.403000000    -0.684000000
H    -2.753000000    -3.725000000    -1.357000000
H    -2.679000000    -3.938000000     0.140000000
O    -0.069000000    -4.567000000     2.233000000
H     0.178000000    -4.259000000     3.105000000
H    -0.749000000    -3.957000000     1.947000000
O     2.273000000     6.963000000     1.542000000
H     3.019000000     6.976000000     2.142000000
H     2.363000000     7.767000000     1.030000000
O    -1.353000000     4.162000000    -2.292000000
H    -1.637000000     5.076000000    -2.280000000
H    -1.436000000     3.874000000    -1.383000000
O    -2.142000000     1.997000000    -4.274000000
H    -1.741000000     2.690000000    -3.750000000
H    -2.829000000     2.440000000    -4.772000000
O    -6.033000000    -0.284000000     1.655000000
H    -5.626000000    -0.451000000     0.806000000
H    -5.306000000    -0.029000000     2.224000000
O    -3.516000000    -5.195000000     3.050000000
H    -3.858000000    -6.009000000     3.419000000
H    -3.059000000    -5.465000000     2.254000000
O    -1.431000000     4.784000000     3.239000000
H    -0.934000000     5.596000000     3.333000000
H    -1.142000000     4.422000000     2.402000000
O     1.958000000    -2.723000000    -4.498000000
H     1.966000000    -1.850000000    -4.104000000
H     2.737000000    -3.152000000    -4.144000000
O    -5.791000000    -3.136000000     0.285000000
H    -5.384000000    -2.292000000     0.090000000
H    -6.704000000    -2.923000000     0.478000000
O     1.977000000    -6.972000000    -1.854000000
H     2.069000000    -7.919000000    -1.960000000
H     1.430000000    -6.871000000    -1.075000000
O     3.251000000     2.122000000    -2.253000000
H     4.067000000     2.089000000    -2.752000000
H     3.527000000     2.294000000    -1.353000000
O    -1.211000000     1.228000000     3.772000000
H    -1.917000000     1.566000000     4.323000000
H    -0.489000000     1.067000000     4.380000000
O     1.421000000    -6.455000000     0.857000000
H     2.325000000    -6.183000000     1.015000000
H     0.891000000    -5.733000000     1.196000000
O    -4.015000000     3.310000000     2.730000000
H    -3.357000000     3.194000000     2.044000000
H    -3.550000000     3.116000000     3.543000000
O    -3.028000000     5.821000000     0.448000000
H    -2.509000000     5.017000000     0.416000000
H    -3.045000000     6.131000000    -0.457000000
O     0.695000000     3.695000000     4.448000000
H    -0.179000000     3.981000000     4.182000000
H     1.084000000     3.340000000     3.649000000
O     1.441000000    -0.201000000    -3.427000000
H     2.039000000     0.451000000    -3.062000000
H     0.592000000     0.006000000    -3.036000000
O     5.166000000     0.187000000     2.666000000
H     4.519000000    -0.518000000     2.699000000
H     4.795000000     0.877000000     3.215000000
O    -4.414000000    -1.004000000    -0.776000000
H    -5.171000000    -0.843000000    -1.339000000
H    -3.784000000    -1.448000000    -1.342000000
O     3.944000000    -4.135000000     0.077000000
H     4.645000000    -4.354000000     0.690000000
H     4.109000000    -3.222000000    -0.159000000
O     3.174000000    -4.676000000    -2.852000000
H     3.466000000    -4.235000000    -2.054000000
H     2.701000000    -5.447000000    -2.540000000
O    -0.839000000    -2.949000000    -4.769000000
H    -0.623000000    -2.225000000    -5.358000000
H     0.000000000    -3.201000000    -4.383000000
