161
-3054.01988
C    -0.037000000     0.804000000    -1.248000000
H     0.047000000     1.299000000    -2.212000000
C     0.573000000    -0.438000000    -1.123000000
H     1.114000000    -0.775000000    -2.003000000
C     0.523000000    -1.073000000     0.091000000
C     1.412000000    -2.286000000     0.401000000
H     2.370000000    -1.984000000     0.829000000
H     0.916000000    -2.946000000     1.115000000
H     1.541000000    -2.816000000    -0.545000000
C    -0.194000000    -0.572000000     1.168000000
H    -0.131000000    -1.084000000     2.125000000
C    -0.889000000     0.653000000     1.031000000
H    -1.470000000     1.032000000     1.867000000
C    -0.730000000     1.314000000    -0.174000000
C    -1.463000000     2.600000000    -0.388000000
O    -2.277000000     2.985000000     0.467000000
O    -1.298000000     3.279000000    -1.393000000
O    -1.084000000    -3.458000000     3.150000000
H    -1.515000000    -3.512000000     4.003000000
H    -0.885000000    -4.366000000     2.924000000
O    -0.274000000     5.384000000     0.322000000
H    -0.678000000     4.633000000    -0.114000000
H    -0.841000000     6.123000000     0.100000000
O     2.457000000    -6.666000000    -1.000000000
H     2.315000000    -7.546000000    -0.650000000
H     2.607000000    -6.122000000    -0.227000000
O     0.450000000     4.071000000    -3.170000000
H     0.464000000     4.969000000    -2.837000000
H    -0.232000000     3.637000000    -2.657000000
O     6.418000000    -3.203000000    -2.965000000
H     5.839000000    -3.505000000    -2.266000000
H     6.125000000    -2.310000000    -3.150000000
O     0.210000000    -3.384000000    -5.743000000
H     1.005000000    -3.804000000    -5.415000000
H    -0.358000000    -3.313000000    -4.976000000
O     1.961000000     3.569000000    -5.502000000
H     1.551000000     4.289000000    -5.981000000
H     1.491000000     3.536000000    -4.669000000
O     5.014000000    -3.326000000    -0.507000000
H     4.885000000    -3.664000000     0.379000000
H     4.911000000    -2.378000000    -0.419000000
O    -2.117000000    -3.451000000     5.662000000
H    -2.719000000    -3.807000000     6.315000000
H    -1.296000000    -3.325000000     6.137000000
O    -1.893000000    -3.399000000    -4.030000000
H    -2.192000000    -2.496000000    -4.137000000
H    -2.383000000    -3.726000000    -3.275000000
O    -0.779000000    -0.599000000     4.598000000
H    -1.248000000    -1.431000000     4.666000000
H    -1.390000000     0.049000000     4.948000000
O    -2.253000000    -2.024000000    -0.925000000
H    -1.613000000    -1.321000000    -0.814000000
H    -1.761000000    -2.730000000    -1.345000000
O    -3.447000000     3.793000000    -2.978000000
H    -3.008000000     3.510000000    -3.781000000
H    -2.782000000     3.697000000    -2.296000000
O     4.569000000    -0.806000000     0.568000000
H     4.633000000    -0.586000000     1.497000000
H     4.620000000     0.038000000     0.118000000
O     0.702000000    -5.549000000    -2.981000000
H     1.334000000    -5.760000000    -2.295000000
H    -0.017000000    -5.117000000    -2.521000000
O    -2.845000000     1.851000000     4.203000000
H    -2.118000000     2.386000000     3.884000000
H    -3.605000000     2.432000000     4.164000000
O    -4.040000000     1.024000000    -3.388000000
H    -4.086000000     1.937000000    -3.104000000
H    -4.002000000     1.072000000    -4.343000000
O     2.190000000     5.204000000     1.721000000
H     1.720000000     4.976000000     0.919000000
H     2.934000000     5.726000000     1.422000000
O    -1.410000000     3.881000000     2.747000000
H    -1.691000000     3.536000000     1.899000000
H    -2.220000000     4.166000000     3.169000000
O    -3.266000000    -4.833000000     0.572000000
H    -2.986000000    -5.024000000     1.468000000
H    -4.001000000    -4.227000000     0.675000000
O     3.990000000    -0.476000000     3.111000000
H     4.747000000     0.064000000     3.341000000
H     3.248000000    -0.039000000     3.528000000
O     2.525000000    -4.633000000    -4.828000000
H     2.084000000    -5.090000000    -4.112000000
H     2.910000000    -5.332000000    -5.358000000
O    -2.193000000     2.887000000    -5.526000000
H    -2.550000000     2.023000000    -5.733000000
H    -1.270000000     2.830000000    -5.772000000
O    -0.385000000     6.912000000    -2.045000000
H    -0.890000000     7.466000000    -2.639000000
H     0.295000000     7.490000000    -1.699000000
O    -3.466000000     7.865000000     1.792000000
H    -3.287000000     7.333000000     1.017000000
H    -4.134000000     7.373000000     2.271000000
O     1.249000000     3.390000000     3.434000000
H     1.774000000     4.079000000     3.026000000
H     0.355000000     3.730000000     3.421000000
O     2.394000000     0.092000000     6.838000000
H     3.240000000    -0.344000000     6.732000000
H     2.090000000     0.244000000     5.944000000
O    -3.327000000     5.538000000     0.047000000
H    -4.125000000     5.287000000     0.513000000
H    -2.826000000     4.726000000    -0.023000000
O     4.030000000    -2.528000000    -4.958000000
H     3.533000000    -1.879000000    -4.460000000
H     3.504000000    -3.325000000    -4.903000000
O     4.715000000     1.546000000    -1.271000000
H     4.056000000     1.862000000    -0.652000000
H     5.414000000     2.198000000    -1.230000000
O    -6.167000000     4.379000000    -2.527000000
H    -5.231000000     4.187000000    -2.577000000
H    -6.261000000     5.229000000    -2.957000000
O    -5.657000000    -0.570000000     2.893000000
H    -5.099000000    -0.769000000     3.645000000
H    -5.109000000    -0.757000000     2.132000000
O    -4.663000000     2.117000000     1.243000000
H    -3.845000000     2.407000000     0.838000000
H    -4.838000000     1.265000000     0.845000000
O    -4.027000000     7.430000000    -1.817000000
H    -4.729000000     7.996000000    -1.496000000
H    -3.782000000     6.899000000    -1.060000000
O    -2.315000000    -0.788000000    -4.138000000
H    -1.403000000    -0.660000000    -4.400000000
H    -2.490000000    -0.076000000    -3.523000000
O     3.382000000     4.828000000    -2.187000000
H     2.904000000     5.510000000    -2.659000000
H     2.714000000     4.385000000    -1.664000000
O     1.530000000     0.717000000     4.399000000
H     0.711000000     0.223000000     4.352000000
H     1.315000000     1.572000000     4.026000000
O     5.529000000    -6.323000000     1.189000000
H     5.479000000    -6.434000000     0.240000000
H     4.688000000    -5.936000000     1.430000000
O     3.132000000     0.682000000    -3.700000000
H     3.476000000     1.303000000    -4.342000000
H     3.710000000     0.777000000    -2.943000000
O     2.668000000     1.652000000     0.821000000
H     1.977000000     2.025000000     1.370000000
H     2.495000000     0.711000000     0.826000000
O    -4.653000000     4.284000000     3.807000000
H    -4.562000000     5.193000000     4.092000000
H    -5.436000000     4.282000000     3.258000000
O     4.488000000    -3.064000000     3.630000000
H     4.068000000    -2.209000000     3.533000000
H     5.313000000    -2.981000000     3.152000000
O    -1.119000000    -4.624000000    -1.158000000
H    -0.665000000    -4.755000000    -0.325000000
H    -1.989000000    -4.998000000    -1.018000000
O     0.105000000     0.083000000    -4.793000000
H     0.948000000     0.244000000    -4.368000000
H     0.260000000     0.280000000    -5.716000000
O     3.255000000    -4.877000000     1.731000000
H     2.395000000    -5.072000000     2.103000000
H     3.682000000    -4.331000000     2.390000000
O     0.173000000    -6.332000000     1.812000000
H    -0.320000000    -6.893000000     1.214000000
H     0.959000000    -6.836000000     2.022000000
O    -4.001000000    -0.758000000     0.747000000
H    -3.399000000    -0.439000000     1.419000000
H    -3.432000000    -1.106000000     0.061000000
O    -6.779000000     3.176000000     2.229000000
H    -7.445000000     2.969000000     1.574000000
H    -5.990000000     2.734000000     1.916000000
