161
-3065.32591
C     0.845000000     1.006000000    -0.604000000
H     1.468000000     1.689000000    -1.176000000
C     1.020000000    -0.390000000    -0.734000000
H     1.808000000    -0.800000000    -1.361000000
C     0.163000000    -1.249000000    -0.076000000
C     0.310000000    -2.701000000    -0.263000000
H     0.194000000    -3.175000000     0.714000000
H    -0.332000000    -3.131000000    -1.034000000
H     1.347000000    -2.854000000    -0.568000000
C    -1.003000000    -0.709000000     0.562000000
H    -1.763000000    -1.407000000     0.901000000
C    -1.115000000     0.727000000     0.681000000
H    -1.977000000     1.190000000     1.153000000
C    -0.184000000     1.554000000     0.102000000
C    -0.315000000     3.029000000     0.419000000
O    -0.815000000     3.353000000     1.466000000
O     0.342000000     3.874000000    -0.184000000
O    -1.706000000     5.684000000    -0.842000000
H    -1.008000000     5.032000000    -0.775000000
H    -1.316000000     6.402000000    -1.340000000
O    -2.190000000    -0.802000000     4.272000000
H    -3.049000000    -0.972000000     3.884000000
H    -2.107000000    -1.456000000     4.965000000
O     0.172000000     6.292000000     1.649000000
H    -0.755000000     6.445000000     1.464000000
H     0.262000000     5.339000000     1.650000000
O     2.251000000    -3.500000000     3.332000000
H     1.449000000    -3.020000000     3.127000000
H     2.758000000    -3.476000000     2.519000000
O     0.776000000     4.117000000    -2.812000000
H     1.208000000     3.457000000    -3.354000000
H     0.743000000     3.725000000    -1.939000000
O    -1.094000000    -5.609000000     0.083000000
H    -0.958000000    -6.534000000     0.287000000
H    -1.916000000    -5.589000000    -0.408000000
O     3.269000000    -5.184000000    -4.014000000
H     2.650000000    -4.455000000    -4.032000000
H     2.883000000    -5.841000000    -4.594000000
O     4.432000000    -5.570000000     0.448000000
H     4.671000000    -4.675000000     0.690000000
H     3.481000000    -5.600000000     0.551000000
O    -4.060000000    -1.208000000    -3.642000000
H    -4.721000000    -0.524000000    -3.529000000
H    -3.297000000    -0.884000000    -3.164000000
O     3.900000000    -0.295000000     0.587000000
H     3.291000000    -0.077000000    -0.118000000
H     4.629000000     0.314000000     0.471000000
O    -1.433000000     5.076000000    -4.144000000
H    -0.603000000     4.977000000    -3.678000000
H    -1.564000000     6.023000000    -4.201000000
O     4.098000000    -2.026000000    -2.336000000
H     4.404000000    -2.191000000    -1.444000000
H     4.872000000    -1.702000000    -2.798000000
O     4.219000000    -2.973000000     1.515000000
H     5.061000000    -3.137000000     1.941000000
H     4.265000000    -2.058000000     1.237000000
O    -1.476000000    -5.428000000    -3.544000000
H    -1.846000000    -4.822000000    -2.903000000
H    -1.365000000    -6.248000000    -3.063000000
O    -2.074000000     1.566000000     5.494000000
H    -1.341000000     2.006000000     5.065000000
H    -1.983000000     0.647000000     5.242000000
O     2.462000000    -0.865000000    -4.277000000
H     2.918000000    -1.340000000    -3.582000000
H     3.080000000    -0.859000000    -5.008000000
O    -4.448000000    -0.557000000    -0.525000000
H    -3.651000000    -0.276000000    -0.975000000
H    -5.016000000     0.213000000    -0.541000000
O    -2.149000000     2.604000000    -4.043000000
H    -1.963000000     2.334000000    -4.942000000
H    -1.707000000     3.448000000    -3.950000000
O     2.858000000     4.497000000    -0.087000000
H     2.890000000     5.376000000     0.290000000
H     1.935000000     4.246000000    -0.032000000
O     1.118000000    -6.311000000    -2.001000000
H     1.173000000    -5.377000000    -2.202000000
H     1.402000000    -6.376000000    -1.089000000
O     0.451000000    -3.988000000    -4.978000000
H    -0.407000000    -4.248000000    -4.643000000
H     0.283000000    -3.185000000    -5.471000000
O    -4.300000000     2.998000000    -2.308000000
H    -3.407000000     3.010000000    -2.650000000
H    -4.674000000     2.183000000    -2.643000000
O    -5.128000000     1.906000000     2.791000000
H    -4.853000000     2.790000000     2.549000000
H    -5.915000000     2.036000000     3.320000000
O     1.694000000    -5.536000000     0.726000000
H     1.235000000    -6.140000000     1.310000000
H     1.030000000    -4.893000000     0.476000000
O     2.954000000     6.952000000     1.182000000
H     2.037000000     6.888000000     1.449000000
H     3.117000000     7.892000000     1.107000000
O    -2.899000000     3.830000000     3.322000000
H    -2.629000000     3.639000000     2.424000000
H    -2.640000000     3.054000000     3.820000000
O    -6.020000000     1.579000000    -0.135000000
H    -5.370000000     2.248000000     0.084000000
H    -6.860000000     2.033000000    -0.075000000
O    -3.772000000    -5.437000000     3.586000000
H    -4.522000000    -5.048000000     3.137000000
H    -3.012000000    -4.988000000     3.216000000
O    -4.257000000    -2.658000000     1.080000000
H    -4.268000000    -1.747000000     0.789000000
H    -5.169000000    -2.942000000     1.011000000
O     1.971000000     0.109000000     2.724000000
H     1.198000000    -0.364000000     3.033000000
H     2.373000000    -0.480000000     2.085000000
O     2.935000000     8.011000000    -2.007000000
H     2.156000000     7.486000000    -1.822000000
H     2.939000000     8.682000000    -1.325000000
O    -1.036000000     4.790000000     5.736000000
H    -0.208000000     4.486000000     5.365000000
H    -1.553000000     5.061000000     4.977000000
O     1.747000000     4.036000000     5.189000000
H     1.789000000     4.991000000     5.141000000
H     2.502000000     3.737000000     4.682000000
O     0.942000000    -0.778000000     5.955000000
H     1.681000000    -1.362000000     5.781000000
H     0.446000000    -0.770000000     5.136000000
O     3.824000000     5.141000000    -2.709000000
H     3.513000000     6.046000000    -2.682000000
H     3.550000000     4.768000000    -1.871000000
O    -2.162000000     0.285000000    -2.360000000
H    -1.544000000     0.136000000    -1.644000000
H    -1.765000000     0.984000000    -2.878000000
O    -1.946000000    -4.206000000     2.199000000
H    -2.591000000    -3.567000000     1.897000000
H    -1.504000000    -4.496000000     1.401000000
O     0.888000000     6.555000000    -1.280000000
H     0.515000000     6.523000000    -0.399000000
H     0.962000000     5.638000000    -1.542000000
O    -0.079000000     2.322000000     3.767000000
H     0.844000000     2.459000000     3.978000000
H    -0.159000000     2.598000000     2.854000000
O     1.266000000     1.823000000    -4.335000000
H     1.622000000     1.786000000    -5.223000000
H     1.528000000     0.994000000    -3.937000000
O     2.619000000     2.745000000     2.556000000
H     2.391000000     1.819000000     2.471000000
H     3.114000000     2.944000000     1.761000000
O    -2.983000000     6.289000000     1.642000000
H    -2.899000000     5.402000000     1.994000000
H    -2.773000000     6.199000000     0.713000000
O     5.154000000     3.390000000    -4.656000000
H     4.857000000     3.825000000    -3.857000000
H     6.109000000     3.405000000    -4.596000000
O    -3.191000000    -4.373000000    -1.249000000
H    -3.972000000    -4.915000000    -1.366000000
H    -3.448000000    -3.721000000    -0.597000000
O    -0.023000000    -1.620000000    -6.462000000
H     0.200000000    -1.316000000    -5.582000000
H    -0.501000000    -0.889000000    -6.854000000
O     4.689000000     2.328000000     0.477000000
H     5.483000000     2.858000000     0.546000000
H     4.002000000     2.955000000     0.251000000
O    -0.041000000    -2.069000000     3.247000000
H    -0.644000000    -1.363000000     3.477000000
H    -0.608000000    -2.823000000     3.081000000
O    -4.723000000    -0.649000000     3.400000000
H    -4.881000000     0.273000000     3.197000000
H    -5.234000000    -1.129000000     2.748000000
