161
-3011.67640
C    -0.898000000     0.485000000     1.170000000
H    -1.407000000     0.837000000     2.063000000
C     0.208000000    -0.323000000     1.249000000
H     0.561000000    -0.626000000     2.232000000
C     0.916000000    -0.743000000     0.123000000
C     2.114000000    -1.587000000     0.263000000
H     3.009000000    -0.998000000     0.474000000
H     2.037000000    -2.259000000     1.120000000
H     2.321000000    -2.016000000    -0.720000000
C     0.588000000    -0.317000000    -1.167000000
H     1.154000000    -0.708000000    -2.009000000
C    -0.442000000     0.553000000    -1.235000000
H    -0.763000000     0.838000000    -2.234000000
C    -1.200000000     0.888000000    -0.145000000
C    -2.382000000     1.749000000    -0.337000000
O    -2.786000000     2.080000000    -1.449000000
O    -3.023000000     2.151000000     0.599000000
O    -3.086000000     1.849000000    -4.185000000
H    -3.051000000     2.016000000    -3.243000000
H    -2.170000000     1.848000000    -4.462000000
O     2.586000000    -0.987000000     4.206000000
H     3.156000000    -0.400000000     3.710000000
H     2.932000000    -0.960000000     5.098000000
O    -3.210000000     2.090000000     5.629000000
H    -2.795000000     1.511000000     4.990000000
H    -4.142000000     1.878000000     5.574000000
O    -7.162000000     1.253000000    -2.054000000
H    -7.846000000     1.261000000    -2.724000000
H    -7.277000000     2.079000000    -1.585000000
O     2.573000000    -5.014000000     2.990000000
H     2.205000000    -4.178000000     3.278000000
H     2.652000000    -5.530000000     3.792000000
O     1.520000000     5.306000000     2.457000000
H     2.239000000     5.640000000     1.920000000
H     1.573000000     4.355000000     2.364000000
O    -5.845000000     5.992000000     0.837000000
H    -5.050000000     6.522000000     0.890000000
H    -5.595000000     5.236000000     0.306000000
O    -0.101000000     2.025000000    -4.238000000
H    -0.287000000     2.701000000    -4.890000000
H     0.709000000     1.616000000    -4.541000000
O     4.478000000    -3.213000000    -3.465000000
H     4.197000000    -2.299000000    -3.426000000
H     4.635000000    -3.455000000    -2.553000000
O    -3.214000000     6.372000000    -2.390000000
H    -3.362000000     6.855000000    -1.577000000
H    -2.513000000     5.756000000    -2.179000000
O    -5.772000000     2.101000000     4.555000000
H    -5.784000000     1.508000000     3.803000000
H    -6.618000000     1.964000000     4.980000000
O     1.114000000    -7.222000000    -0.351000000
H     0.865000000    -6.448000000     0.155000000
H     0.463000000    -7.269000000    -1.051000000
O     0.455000000     0.470000000    -7.327000000
H     0.624000000     0.119000000    -6.453000000
H     0.727000000     1.386000000    -7.273000000
O     4.794000000    -3.830000000    -0.916000000
H     4.158000000    -3.297000000    -0.440000000
H     5.279000000    -4.292000000    -0.232000000
O    -0.970000000     5.081000000     0.818000000
H    -1.395000000     5.041000000    -0.039000000
H    -0.134000000     4.632000000     0.692000000
O    -4.962000000     0.836000000     1.755000000
H    -4.427000000     1.378000000     1.175000000
H    -4.340000000     0.224000000     2.151000000
O    -2.393000000    -2.129000000    -3.562000000
H    -1.966000000    -1.279000000    -3.665000000
H    -1.868000000    -2.583000000    -2.903000000
O    -4.426000000    -2.034000000     0.192000000
H    -4.079000000    -2.447000000    -0.599000000
H    -4.997000000    -1.338000000    -0.133000000
O     0.730000000    -4.786000000     0.812000000
H    -0.121000000    -4.585000000     1.201000000
H     1.366000000    -4.500000000     1.468000000
O     5.907000000    -0.986000000    -0.323000000
H     5.979000000    -1.912000000    -0.558000000
H     5.829000000    -0.987000000     0.631000000
O    -4.622000000    -0.185000000    -5.382000000
H    -4.341000000    -0.942000000    -4.867000000
H    -4.176000000     0.559000000    -4.977000000
O     5.888000000    -1.275000000     2.484000000
H     6.094000000    -2.081000000     2.957000000
H     5.496000000    -0.703000000     3.145000000
O    -2.053000000    -1.845000000    -6.464000000
H    -1.164000000    -1.538000000    -6.287000000
H    -2.345000000    -2.222000000    -5.635000000
O    -4.422000000     3.485000000    -6.017000000
H    -5.283000000     3.555000000    -5.603000000
H    -3.870000000     3.074000000    -5.352000000
O    -4.495000000    -1.441000000     4.895000000
H    -3.851000000    -1.446000000     5.603000000
H    -4.206000000    -2.136000000     4.304000000
O     3.695000000     2.004000000    -3.245000000
H     4.382000000     2.036000000    -2.580000000
H     3.551000000     2.920000000    -3.485000000
O    -7.489000000     1.173000000     2.421000000
H    -6.580000000     1.144000000     2.125000000
H    -7.655000000     2.100000000     2.593000000
O     5.151000000     1.957000000    -0.913000000
H     5.543000000     1.140000000    -0.606000000
H     5.343000000     2.590000000    -0.221000000
O     3.609000000    -0.677000000    -3.008000000
H     4.025000000     0.173000000    -3.149000000
H     2.904000000    -0.498000000    -2.385000000
O     4.906000000     0.618000000     4.038000000
H     5.761000000     1.048000000     4.067000000
H     4.760000000     0.317000000     4.935000000
O    -4.709000000     0.065000000    -1.735000000
H    -4.122000000     0.816000000    -1.652000000
H    -5.576000000     0.451000000    -1.861000000
O     0.924000000    -2.170000000    -5.549000000
H     1.830000000    -1.930000000    -5.739000000
H     0.983000000    -3.043000000    -5.161000000
O    -0.248000000    -3.827000000    -1.581000000
H     0.474000000    -3.832000000    -2.210000000
H     0.178000000    -3.739000000    -0.728000000
O    -4.299000000    -3.467000000     2.509000000
H    -4.213000000    -2.958000000     1.702000000
H    -5.118000000    -3.949000000     2.402000000
O     6.747000000    -0.563000000    -3.052000000
H     6.460000000    -0.511000000    -2.140000000
H     7.024000000    -1.472000000    -3.165000000
O    -1.484000000     4.196000000    -2.313000000
H    -0.580000000     3.910000000    -2.439000000
H    -1.964000000     3.392000000    -2.114000000
O    -0.232000000     3.984000000     4.705000000
H    -0.989000000     3.741000000     4.173000000
H     0.396000000     4.343000000     4.079000000
O     2.153000000     0.587000000    -5.162000000
H     2.430000000    -0.271000000    -5.482000000
H     2.732000000     0.765000000    -4.421000000
O    -4.653000000     3.978000000    -0.703000000
H    -4.773000000     3.970000000    -1.653000000
H    -3.968000000     3.328000000    -0.543000000
O     1.968000000    -4.340000000    -3.180000000
H     2.864000000    -4.010000000    -3.243000000
H     2.025000000    -5.247000000    -3.482000000
O     2.094000000     4.883000000    -0.825000000
H     2.926000000     5.185000000    -1.189000000
H     2.337000000     4.178000000    -0.226000000
O    -7.148000000    -0.456000000     0.043000000
H    -7.475000000    -0.052000000     0.847000000
H    -6.963000000     0.281000000    -0.538000000
O     2.102000000     2.770000000     1.067000000
H     1.526000000     2.070000000     0.761000000
H     2.393000000     2.481000000     1.932000000
O     2.448000000     2.677000000     3.944000000
H     1.578000000     2.508000000     4.305000000
H     3.008000000     2.013000000     4.347000000
O     4.558000000    -5.290000000     1.335000000
H     5.264000000    -5.393000000     1.974000000
H     3.759000000    -5.268000000     1.862000000
O    -2.077000000     3.537000000     2.892000000
H    -1.782000000     4.267000000     2.348000000
H    -2.709000000     3.070000000     2.345000000
O     0.974000000    -3.100000000     3.817000000
H     1.327000000    -2.211000000     3.820000000
H     0.109000000    -3.016000000     4.219000000
O    -6.128000000     4.502000000    -3.450000000
H    -5.988000000     5.409000000    -3.724000000
H    -7.017000000     4.299000000    -3.742000000
