161
-2997.03885
C    -0.039000000     1.507000000     0.062000000
H    -0.035000000     2.588000000    -0.051000000
C     0.569000000     0.753000000    -0.940000000
H     0.853000000     1.277000000    -1.848000000
C     0.557000000    -0.680000000    -0.886000000
C     1.052000000    -1.490000000    -2.047000000
H     1.795000000    -0.882000000    -2.567000000
H     1.647000000    -2.296000000    -1.612000000
H     0.291000000    -1.877000000    -2.727000000
C     0.009000000    -1.296000000     0.187000000
H    -0.011000000    -2.367000000     0.374000000
C    -0.597000000    -0.508000000     1.220000000
H    -1.038000000    -1.028000000     2.067000000
C    -0.574000000     0.859000000     1.177000000
C    -1.279000000     1.595000000     2.287000000
O    -2.076000000     0.996000000     2.927000000
O    -1.121000000     2.841000000     2.378000000
O     2.057000000     6.043000000     2.942000000
H     1.568000000     6.850000000     2.780000000
H     1.652000000     5.398000000     2.362000000
O    -2.036000000     4.083000000     4.591000000
H    -1.720000000     3.790000000     3.736000000
H    -2.833000000     3.573000000     4.739000000
O    -0.811000000    -4.664000000    -6.019000000
H    -1.701000000    -4.582000000    -5.678000000
H    -0.609000000    -5.596000000    -5.939000000
O     3.061000000    -6.345000000     1.251000000
H     2.357000000    -5.840000000     0.846000000
H     3.277000000    -7.017000000     0.604000000
O     0.535000000    -0.079000000    -7.184000000
H     0.296000000     0.822000000    -6.968000000
H     0.202000000    -0.597000000    -6.451000000
O     0.270000000     4.924000000     1.203000000
H    -0.476000000     5.524000000     1.202000000
H    -0.078000000     4.109000000     1.564000000
O    -3.434000000    -5.020000000     1.626000000
H    -2.548000000    -5.047000000     1.264000000
H    -3.427000000    -4.269000000     2.220000000
O     0.562000000     0.870000000     7.029000000
H     1.488000000     0.659000000     6.916000000
H     0.165000000     0.668000000     6.182000000
O     6.536000000    -0.183000000    -1.988000000
H     6.422000000    -0.886000000    -1.349000000
H     5.645000000     0.058000000    -2.241000000
O    -2.055000000     0.033000000     7.781000000
H    -1.436000000     0.400000000     7.151000000
H    -1.790000000    -0.882000000     7.872000000
O    -4.695000000     0.616000000    -0.850000000
H    -4.713000000     0.602000000     0.107000000
H    -5.618000000     0.603000000    -1.107000000
O     5.206000000    -2.591000000    -4.177000000
H     4.394000000    -2.085000000    -4.209000000
H     5.075000000    -3.295000000    -4.811000000
O    -3.833000000     1.603000000     4.944000000
H    -4.402000000     0.833000000     4.935000000
H    -3.024000000     1.309000000     4.527000000
O    -2.842000000     4.231000000     0.762000000
H    -2.354000000     3.524000000     1.185000000
H    -2.479000000     5.032000000     1.140000000
O    -3.266000000    -2.283000000     0.582000000
H    -3.525000000    -1.471000000     1.018000000
H    -4.049000000    -2.833000000     0.616000000
O     0.536000000     5.195000000    -3.190000000
H     0.321000000     4.399000000    -3.676000000
H    -0.170000000     5.283000000    -2.550000000
O     0.101000000    -2.244000000    -5.507000000
H    -0.092000000    -3.175000000    -5.616000000
H    -0.742000000    -1.808000000    -5.632000000
O     2.677000000     3.910000000    -1.878000000
H     2.101000000     4.342000000    -2.509000000
H     2.929000000     3.091000000    -2.305000000
O     2.146000000     5.996000000    -0.432000000
H     1.640000000     5.498000000     0.211000000
H     2.477000000     5.335000000    -1.040000000
O    -1.876000000    -4.010000000    -1.121000000
H    -2.476000000    -3.988000000    -1.866000000
H    -2.217000000    -3.347000000    -0.520000000
O     2.085000000     0.638000000     4.330000000
H     1.211000000     0.414000000     4.009000000
H     2.026000000     1.565000000     4.559000000
O     2.935000000    -1.943000000    -5.714000000
H     3.013000000    -1.004000000    -5.884000000
H     2.009000000    -2.073000000    -5.509000000
O     5.207000000     0.330000000     1.225000000
H     5.756000000    -0.423000000     1.445000000
H     4.584000000    -0.008000000     0.582000000
O     0.057000000    -2.857000000     5.656000000
H    -0.443000000    -2.647000000     6.444000000
H     0.428000000    -3.722000000     5.832000000
O    -1.354000000    -4.189000000     3.444000000
H    -1.944000000    -3.450000000     3.295000000
H    -0.932000000    -3.993000000     4.280000000
O     3.999000000     0.743000000    -1.575000000
H     3.618000000     1.198000000    -2.325000000
H     3.675000000     1.224000000    -0.813000000
O    -5.819000000     3.897000000     4.009000000
H    -5.628000000     4.125000000     3.099000000
H    -5.708000000     2.947000000     4.046000000
O    -4.549000000     0.584000000     1.792000000
H    -5.282000000     0.713000000     2.394000000
H    -3.771000000     0.762000000     2.321000000
O    -1.700000000     6.507000000     5.604000000
H    -1.807000000     5.651000000     5.190000000
H    -2.377000000     7.053000000     5.204000000
O     3.574000000     0.834000000    -6.020000000
H     3.215000000     1.137000000    -6.854000000
H     4.331000000     0.301000000    -6.266000000
O     0.545000000     3.114000000     4.342000000
H    -0.079000000     3.061000000     3.618000000
H     0.160000000     3.751000000     4.944000000
O     4.271000000    -6.242000000    -3.073000000
H     3.508000000    -6.567000000    -2.595000000
H     3.954000000    -5.462000000    -3.529000000
O     2.730000000     1.732000000    -3.676000000
H     2.971000000     1.388000000    -4.536000000
H     1.897000000     2.181000000    -3.822000000
O    -5.533000000     3.124000000     6.556000000
H    -4.967000000     2.584000000     6.004000000
H    -6.220000000     3.433000000     5.965000000
O    -2.295000000     0.876000000    -2.171000000
H    -3.078000000     0.583000000    -1.704000000
H    -1.566000000     0.521000000    -1.663000000
O     0.267000000    -5.621000000    -0.784000000
H    -0.530000000    -5.192000000    -1.095000000
H     0.766000000    -5.806000000    -1.579000000
O    -0.691000000    -0.227000000     4.785000000
H    -0.600000000    -1.180000000     4.780000000
H    -1.264000000    -0.038000000     4.042000000
O    -1.906000000     4.467000000    -1.871000000
H    -2.343000000     3.876000000    -2.485000000
H    -2.105000000     4.104000000    -1.008000000
O     0.119000000     2.564000000    -4.210000000
H    -0.659000000     2.270000000    -3.736000000
H    -0.067000000     2.357000000    -5.126000000
O    -2.461000000    -0.992000000    -6.017000000
H    -2.503000000    -0.635000000    -6.904000000
H    -2.868000000    -0.322000000    -5.468000000
O    -5.049000000    -0.580000000     4.882000000
H    -5.902000000    -0.469000000     4.462000000
H    -5.183000000    -1.287000000     5.513000000
O    -3.589000000    -2.770000000     3.591000000
H    -3.641000000    -1.978000000     4.126000000
H    -4.465000000    -3.152000000     3.643000000
O     1.123000000    -5.426000000    -3.372000000
H     0.959000000    -4.535000000    -3.681000000
H     1.202000000    -5.946000000    -4.172000000
O    -1.560000000     6.661000000     1.298000000
H    -1.226000000     7.222000000     0.599000000
H    -2.098000000     7.243000000     1.835000000
O     4.749000000     4.255000000    -0.042000000
H     3.981000000     4.374000000    -0.600000000
H     5.051000000     5.145000000     0.143000000
O     0.152000000    -6.286000000     3.059000000
H    -0.306000000    -5.445000000     3.046000000
H     1.080000000    -6.053000000     3.072000000
O    -5.702000000     4.702000000     1.054000000
H    -6.189000000     5.209000000     0.405000000
H    -4.895000000     4.449000000     0.605000000
O    -0.952000000    -7.502000000     0.860000000
H    -0.669000000    -7.141000000     1.700000000
H    -0.618000000    -6.885000000     0.209000000
