161
-3054.10011
C    -0.482000000     1.298000000    -0.541000000
H    -0.911000000     2.091000000    -1.148000000
C     0.367000000     0.440000000    -1.128000000
H     0.661000000     0.583000000    -2.165000000
C     0.718000000    -0.764000000    -0.573000000
C     1.569000000    -1.689000000    -1.391000000
H     1.130000000    -2.684000000    -1.298000000
H     1.713000000    -1.478000000    -2.453000000
H     2.559000000    -1.660000000    -0.932000000
C     0.390000000    -1.010000000     0.738000000
H     0.800000000    -1.902000000     1.204000000
C    -0.387000000    -0.111000000     1.429000000
H    -0.622000000    -0.326000000     2.468000000
C    -0.904000000     1.009000000     0.725000000
C    -1.901000000     1.825000000     1.455000000
O    -2.201000000     1.599000000     2.636000000
O    -2.492000000     2.782000000     0.979000000
O    -3.250000000     5.096000000     5.470000000
H    -2.533000000     5.154000000     4.839000000
H    -4.011000000     5.441000000     5.001000000
O     5.463000000    -2.427000000    -1.603000000
H     6.117000000    -2.859000000    -2.153000000
H     4.788000000    -3.092000000    -1.468000000
O    -0.788000000    -0.250000000    -6.885000000
H    -1.122000000     0.646000000    -6.919000000
H    -0.588000000    -0.397000000    -5.961000000
O    -2.170000000     5.183000000     2.942000000
H    -2.452000000     5.816000000     2.282000000
H    -1.822000000     4.448000000     2.436000000
O    -2.485000000    -4.007000000     0.493000000
H    -2.397000000    -4.708000000     1.138000000
H    -2.748000000    -3.241000000     1.004000000
O     6.192000000     0.125000000    -1.709000000
H     5.815000000    -0.753000000    -1.653000000
H     5.751000000     0.528000000    -2.457000000
O    -3.866000000     2.427000000    -1.440000000
H    -4.754000000     2.117000000    -1.261000000
H    -3.519000000     2.668000000    -0.581000000
O     4.274000000    -2.198000000    -4.844000000
H     3.764000000    -2.229000000    -5.654000000
H     4.426000000    -1.265000000    -4.692000000
O    -6.893000000     1.186000000     3.172000000
H    -7.782000000     1.079000000     3.510000000
H    -6.656000000     2.084000000     3.403000000
O    -6.211000000     1.002000000    -0.962000000
H    -7.148000000     1.174000000    -1.058000000
H    -6.141000000     0.047000000    -0.968000000
O    -4.104000000     2.402000000     4.225000000
H    -3.846000000     3.320000000     4.317000000
H    -3.431000000     2.020000000     3.662000000
O    -4.690000000     4.391000000     0.990000000
H    -3.928000000     3.877000000     1.255000000
H    -4.364000000     5.289000000     0.931000000
O    -0.953000000    -2.030000000    -4.072000000
H    -0.598000000    -1.670000000    -3.260000000
H    -1.617000000    -2.658000000    -3.786000000
O    -2.386000000    -3.377000000    -2.037000000
H    -2.602000000    -3.845000000    -1.231000000
H    -2.931000000    -2.590000000    -2.011000000
O     4.190000000    -0.035000000     4.583000000
H     3.365000000     0.434000000     4.708000000
H     4.852000000     0.539000000     4.969000000
O    -1.293000000    -7.420000000    -1.437000000
H    -2.133000000    -7.007000000    -1.638000000
H    -0.678000000    -6.689000000    -1.368000000
O     0.320000000     5.998000000    -3.405000000
H     0.078000000     6.168000000    -4.315000000
H    -0.472000000     5.633000000    -3.010000000
O     0.486000000    -4.006000000    -5.453000000
H     0.020000000    -4.805000000    -5.208000000
H    -0.001000000    -3.303000000    -5.024000000
O     2.660000000     4.195000000    -3.293000000
H     1.712000000     4.282000000    -3.389000000
H     2.898000000     3.493000000    -3.900000000
O     0.564000000     6.815000000    -0.018000000
H     0.938000000     5.935000000     0.031000000
H     0.956000000     7.283000000     0.719000000
O     0.363000000    -5.103000000    -1.719000000
H     0.205000000    -5.040000000    -2.661000000
H    -0.214000000    -4.444000000    -1.334000000
O    -7.078000000     4.445000000     2.316000000
H    -6.333000000     4.362000000     1.720000000
H    -7.802000000     4.023000000     1.853000000
O     2.482000000    -2.435000000    -6.990000000
H     1.927000000    -1.860000000    -7.517000000
H     1.869000000    -3.034000000    -6.562000000
O     2.115000000     1.930000000     1.102000000
H     2.988000000     1.541000000     1.056000000
H     1.540000000     1.275000000     0.706000000
O    -2.596000000    -1.777000000     5.742000000
H    -3.066000000    -1.112000000     6.243000000
H    -1.683000000    -1.682000000     6.014000000
O    -0.189000000    -4.146000000     3.913000000
H     0.036000000    -3.685000000     3.104000000
H    -1.048000000    -4.531000000     3.737000000
O     2.227000000     4.720000000     1.159000000
H     2.725000000     4.829000000     0.349000000
H     1.847000000     3.844000000     1.091000000
O     4.922000000     0.708000000    -4.398000000
H     4.062000000     0.978000000    -4.075000000
H     5.023000000     1.173000000    -5.229000000
O    -4.672000000     0.130000000     2.045000000
H    -5.351000000     0.643000000     2.483000000
H    -3.915000000     0.715000000     2.012000000
O    -6.036000000    -1.706000000     0.457000000
H    -5.289000000    -1.344000000     0.935000000
H    -6.689000000    -1.884000000     1.134000000
O    -4.120000000     1.378000000    -5.234000000
H    -4.468000000     2.254000000    -5.402000000
H    -3.489000000     1.503000000    -4.525000000
O     4.643000000     1.253000000     0.297000000
H     5.429000000     1.712000000     0.590000000
H     4.958000000     0.634000000    -0.362000000
O     2.357000000     1.793000000    -4.739000000
H     2.418000000     2.117000000    -5.638000000
H     1.431000000     1.579000000    -4.625000000
O    -6.096000000     3.160000000     5.944000000
H    -5.919000000     2.734000000     6.783000000
H    -5.491000000     2.742000000     5.331000000
O     4.899000000    -3.362000000     1.482000000
H     4.589000000    -3.186000000     0.593000000
H     5.851000000    -3.288000000     1.423000000
O    -2.564000000     0.750000000    -2.965000000
H    -2.966000000     1.135000000    -2.186000000
H    -2.811000000    -0.174000000    -2.930000000
O     3.901000000    -4.747000000    -1.112000000
H     2.998000000    -4.979000000    -0.892000000
H     3.926000000    -4.765000000    -2.068000000
O    -0.515000000     2.261000000     4.526000000
H    -1.120000000     2.234000000     3.785000000
H    -0.750000000     1.499000000     5.055000000
O    -2.292000000     4.439000000    -2.641000000
H    -2.148000000     3.947000000    -3.449000000
H    -2.763000000     3.831000000    -2.071000000
O    -0.311000000     1.478000000    -4.424000000
H    -0.912000000     1.262000000    -3.711000000
H    -0.730000000     2.208000000    -4.878000000
O     4.257000000    -2.672000000     4.082000000
H     4.250000000    -2.812000000     3.135000000
H     4.169000000    -1.725000000     4.185000000
O    -3.549000000    -2.330000000     2.755000000
H    -3.203000000    -2.257000000     3.644000000
H    -3.764000000    -1.430000000     2.507000000
O     2.128000000     1.942000000     3.747000000
H     2.039000000     1.855000000     2.798000000
H     1.366000000     2.456000000     4.013000000
O     3.831000000    -4.826000000    -3.904000000
H     3.849000000    -3.895000000    -4.126000000
H     3.359000000    -5.236000000    -4.628000000
O    -1.340000000     3.887000000    -5.407000000
H    -2.222000000     4.150000000    -5.670000000
H    -0.811000000     4.677000000    -5.521000000
O    -3.572000000     6.956000000     0.693000000
H    -3.561000000     7.045000000    -0.260000000
H    -3.194000000     7.774000000     1.015000000
O     4.222000000     4.654000000    -1.264000000
H     3.570000000     4.186000000    -1.786000000
H     4.591000000     5.300000000    -1.866000000
O    -0.167000000    -0.877000000     6.557000000
H     0.519000000    -0.603000000     5.948000000
H     0.276000000    -0.944000000     7.403000000
