161
-3026.52745
C     0.589000000     0.989000000     0.870000000
H     0.886000000     1.635000000     1.693000000
C     1.030000000    -0.297000000     0.725000000
H     1.799000000    -0.703000000     1.376000000
C     0.442000000    -1.116000000    -0.153000000
C     0.935000000    -2.600000000    -0.254000000
H     2.003000000    -2.666000000    -0.038000000
H     0.358000000    -3.308000000     0.345000000
H     0.737000000    -2.913000000    -1.281000000
C    -0.624000000    -0.691000000    -0.890000000
H    -1.153000000    -1.362000000    -1.562000000
C    -1.136000000     0.579000000    -0.721000000
H    -1.934000000     0.994000000    -1.332000000
C    -0.474000000     1.523000000     0.121000000
C    -1.042000000     2.917000000     0.329000000
O    -2.126000000     3.206000000     0.015000000
O    -0.288000000     3.805000000     0.762000000
O     1.532000000    -2.167000000    -3.754000000
H     1.086000000    -3.014000000    -3.783000000
H     1.015000000    -1.605000000    -4.331000000
O    -4.803000000     5.732000000     1.196000000
H    -4.808000000     6.462000000     0.577000000
H    -4.941000000     6.141000000     2.050000000
O     2.461000000     8.110000000     0.991000000
H     2.174000000     7.239000000     0.717000000
H     2.941000000     7.959000000     1.805000000
O     0.289000000    -4.837000000    -3.452000000
H     0.319000000    -5.483000000    -4.157000000
H    -0.643000000    -4.735000000    -3.260000000
O    -2.179000000     5.761000000    -0.635000000
H    -3.117000000     5.879000000    -0.487000000
H    -1.973000000     4.925000000    -0.217000000
O     0.598000000     1.854000000     4.870000000
H    -0.107000000     1.625000000     5.476000000
H     1.401000000     1.647000000     5.348000000
O    -5.816000000    -2.880000000    -1.766000000
H    -6.724000000    -3.179000000    -1.818000000
H    -5.390000000    -3.508000000    -1.182000000
O     1.435000000    -3.147000000     4.001000000
H     1.432000000    -3.754000000     4.742000000
H     0.869000000    -3.561000000     3.350000000
O    -2.641000000     2.115000000     4.195000000
H    -1.864000000     1.743000000     3.778000000
H    -3.193000000     2.395000000     3.465000000
O    -2.632000000    -5.102000000    -2.433000000
H    -2.891000000    -4.945000000    -1.525000000
H    -3.379000000    -4.800000000    -2.950000000
O    -0.280000000    -4.935000000     2.248000000
H     0.006000000    -5.720000000     2.714000000
H    -0.869000000    -4.493000000     2.860000000
O    -1.389000000    -3.952000000     4.633000000
H    -1.158000000    -3.078000000     4.318000000
H    -1.645000000    -3.817000000     5.546000000
O     5.762000000    -3.849000000     2.020000000
H     5.291000000    -4.094000000     2.817000000
H     5.896000000    -2.904000000     2.102000000
O    -2.025000000     4.880000000     2.756000000
H    -1.658000000     5.761000000     2.836000000
H    -1.696000000     4.559000000     1.917000000
O    -4.134000000     2.896000000     1.774000000
H    -3.485000000     2.812000000     1.074000000
H    -4.276000000     3.839000000     1.856000000
O     1.216000000     5.780000000     0.752000000
H     0.388000000     5.300000000     0.765000000
H     1.888000000     5.098000000     0.749000000
O     1.393000000     4.351000000    -4.223000000
H     1.934000000     3.741000000    -3.722000000
H     0.796000000     4.728000000    -3.577000000
O    -4.037000000    -0.696000000    -1.416000000
H    -4.569000000    -1.388000000    -1.808000000
H    -3.142000000    -0.894000000    -1.694000000
O    -3.188000000    -3.600000000     2.327000000
H    -2.642000000    -4.078000000     1.703000000
H    -2.625000000    -2.896000000     2.648000000
O     5.265000000     0.962000000    -0.550000000
H     4.679000000     1.325000000     0.114000000
H     5.851000000     1.684000000    -0.775000000
O     2.590000000    -0.733000000     3.822000000
H     2.302000000    -1.644000000     3.763000000
H     3.512000000    -0.756000000     3.566000000
O    -0.211000000     7.052000000     3.428000000
H     0.639000000     6.694000000     3.685000000
H    -0.154000000     7.145000000     2.477000000
O    -3.588000000     0.050000000     1.519000000
H    -3.378000000    -0.009000000     0.587000000
H    -3.799000000     0.973000000     1.659000000
O    -1.483000000    -1.510000000     2.958000000
H    -0.654000000    -1.249000000     3.359000000
H    -1.849000000    -0.695000000     2.615000000
O     2.703000000     2.972000000    -2.252000000
H     2.878000000     2.040000000    -2.377000000
H     2.904000000     3.132000000    -1.330000000
O     3.108000000     0.979000000     5.590000000
H     2.674000000     0.447000000     4.923000000
H     4.042000000     0.852000000     5.427000000
O     2.475000000     6.218000000     3.965000000
H     2.067000000     6.262000000     4.830000000
H     2.318000000     5.320000000     3.672000000
O    -2.860000000     1.669000000    -3.536000000
H    -2.685000000     0.782000000    -3.851000000
H    -3.482000000     2.029000000    -4.169000000
O    -0.495000000     2.530000000    -5.363000000
H     0.130000000     3.031000000    -4.839000000
H    -1.191000000     2.298000000    -4.749000000
O    -0.597000000    -1.594000000    -5.396000000
H    -0.491000000    -0.796000000    -5.914000000
H    -0.322000000    -2.299000000    -5.982000000
O    -2.850000000    -1.148000000    -3.996000000
H    -3.411000000    -1.606000000    -4.622000000
H    -1.963000000    -1.435000000    -4.214000000
O    -6.061000000     1.327000000    -0.737000000
H    -5.304000000     0.744000000    -0.688000000
H    -5.691000000     2.184000000    -0.949000000
O     1.258000000    -6.140000000    -0.980000000
H     0.676000000    -5.584000000    -0.462000000
H     0.933000000    -6.059000000    -1.876000000
O    -1.940000000     7.835000000     1.054000000
H    -2.247000000     8.706000000     0.801000000
H    -2.047000000     7.305000000     0.264000000
O     0.594000000     7.920000000    -1.374000000
H     0.026000000     7.175000000    -1.571000000
H     1.125000000     7.627000000    -0.633000000
O    -1.674000000     4.643000000     5.520000000
H    -1.927000000     3.725000000     5.614000000
H    -1.680000000     4.797000000     4.576000000
O     5.392000000    -1.154000000     4.307000000
H     6.027000000    -0.608000000     3.844000000
H     5.855000000    -1.976000000     4.467000000
O     0.078000000     4.968000000    -1.856000000
H     0.694000000     4.406000000    -1.386000000
H    -0.624000000     5.133000000    -1.227000000
O     4.237000000    -5.231000000    -1.503000000
H     3.351000000    -5.452000000    -1.214000000
H     4.808000000    -5.609000000    -0.835000000
O     4.229000000    -2.709000000    -3.121000000
H     3.316000000    -2.475000000    -3.287000000
H     4.181000000    -3.526000000    -2.625000000
O    -7.046000000     3.540000000     1.370000000
H    -6.374000000     2.858000000     1.387000000
H    -6.571000000     4.349000000     1.559000000
O     6.392000000    -1.449000000    -1.556000000
H     5.980000000    -0.636000000    -1.261000000
H     5.709000000    -1.895000000    -2.057000000
O     3.017000000     0.386000000    -2.852000000
H     3.209000000     0.151000000    -1.944000000
H     2.565000000    -0.379000000    -3.207000000
O     1.512000000     3.919000000     3.124000000
H     1.014000000     3.741000000     2.326000000
H     1.227000000     3.244000000     3.739000000
O    -4.256000000     3.265000000    -1.605000000
H    -3.959000000     3.009000000    -2.478000000
H    -3.495000000     3.121000000    -1.042000000
O     3.469000000     3.569000000     0.224000000
H     4.084000000     4.283000000     0.395000000
H     3.486000000     3.042000000     1.023000000
O    -6.433000000     5.288000000    -1.072000000
H    -5.845000000     6.004000000    -1.313000000
H    -5.861000000     4.632000000    -0.675000000
O     3.949000000     2.078000000     2.559000000
H     4.086000000     2.601000000     3.349000000
H     3.668000000     1.223000000     2.885000000
