161
-3038.26748
C     0.078000000     1.486000000     0.270000000
H    -0.116000000     2.552000000     0.180000000
C     0.421000000     0.825000000    -0.924000000
H     0.505000000     1.379000000    -1.856000000
C     0.425000000    -0.550000000    -0.984000000
C     0.866000000    -1.315000000    -2.306000000
H     0.817000000    -0.701000000    -3.207000000
H     1.925000000    -1.490000000    -2.103000000
H     0.300000000    -2.230000000    -2.489000000
C     0.157000000    -1.328000000     0.154000000
H     0.190000000    -2.414000000     0.164000000
C    -0.316000000    -0.665000000     1.273000000
H    -0.578000000    -1.188000000     2.189000000
C    -0.583000000     0.725000000     1.283000000
C    -1.166000000     1.449000000     2.469000000
O    -1.338000000     0.839000000     3.448000000
O    -1.579000000     2.618000000     2.440000000
O    -1.058000000     0.541000000     7.910000000
H    -0.291000000    -0.027000000     7.843000000
H    -1.588000000     0.319000000     7.144000000
O     3.808000000    -3.023000000    -5.997000000
H     4.464000000    -2.329000000    -5.950000000
H     3.134000000    -2.677000000    -6.582000000
O     4.618000000    -1.493000000    -0.849000000
H     4.558000000    -2.438000000    -0.710000000
H     4.632000000    -1.121000000     0.033000000
O     0.664000000     1.920000000     4.788000000
H     0.210000000     2.165000000     5.594000000
H     0.030000000     1.387000000     4.309000000
O    -0.613000000    -4.988000000    -2.512000000
H    -1.206000000    -5.649000000    -2.156000000
H    -0.106000000    -4.690000000    -1.757000000
O    -5.353000000     1.766000000     3.003000000
H    -4.910000000     1.016000000     3.401000000
H    -5.007000000     2.525000000     3.472000000
O     4.562000000    -0.490000000    -4.924000000
H     4.617000000    -0.129000000    -4.038000000
H     4.687000000     0.266000000    -5.498000000
O     2.261000000     2.515000000    -3.469000000
H     2.896000000     1.806000000    -3.363000000
H     2.412000000     3.085000000    -2.715000000
O     4.192000000    -3.901000000     2.825000000
H     4.912000000    -3.807000000     3.449000000
H     3.667000000    -3.110000000     2.945000000
O    -3.597000000    -0.489000000    -3.989000000
H    -4.396000000    -0.939000000    -4.265000000
H    -3.268000000    -1.011000000    -3.257000000
O     2.733000000     4.240000000    -1.341000000
H     2.317000000     5.074000000    -1.561000000
H     3.654000000     4.462000000    -1.199000000
O    -2.872000000    -0.671000000    -0.715000000
H    -3.271000000    -1.138000000     0.019000000
H    -1.963000000    -0.970000000    -0.724000000
O    -3.477000000     2.222000000    -1.009000000
H    -3.020000000     2.362000000    -1.838000000
H    -3.373000000     1.287000000    -0.833000000
O    -1.522000000     3.496000000     6.309000000
H    -2.308000000     3.509000000     5.762000000
H    -1.682000000     2.796000000     6.942000000
O     2.430000000     4.802000000    -5.160000000
H     1.507000000     4.802000000    -5.412000000
H     2.495000000     4.124000000    -4.487000000
O    -0.233000000     2.772000000    -4.898000000
H     0.477000000     2.526000000    -4.304000000
H    -0.657000000     1.943000000    -5.120000000
O     5.678000000    -5.104000000    -1.418000000
H     6.520000000    -4.672000000    -1.276000000
H     5.067000000    -4.627000000    -0.857000000
O    -2.634000000    -3.284000000    -2.954000000
H    -2.872000000    -3.268000000    -2.027000000
H    -1.724000000    -3.579000000    -2.963000000
O     4.041000000     3.452000000     2.265000000
H     3.937000000     2.749000000     1.624000000
H     3.173000000     3.552000000     2.655000000
O     4.027000000    -4.019000000     0.140000000
H     3.113000000    -4.219000000    -0.062000000
H     4.046000000    -3.923000000     1.093000000
O    -2.745000000     2.340000000    -3.628000000
H    -3.217000000     1.566000000    -3.935000000
H    -2.009000000     2.427000000    -4.234000000
O     1.512000000     3.714000000     2.817000000
H     1.222000000     3.059000000     3.451000000
H     0.777000000     4.324000000     2.750000000
O     3.324000000     1.833000000     0.167000000
H     2.766000000     1.296000000    -0.395000000
H     3.209000000     2.724000000    -0.162000000
O    -2.468000000     5.123000000    -3.347000000
H    -2.004000000     4.321000000    -3.107000000
H    -2.310000000     5.219000000    -4.286000000
O    -1.012000000     7.410000000     4.485000000
H    -1.273000000     6.494000000     4.395000000
H    -1.833000000     7.899000000     4.430000000
O    -0.955000000     4.810000000     3.940000000
H    -0.791000000     4.544000000     4.845000000
H    -1.210000000     4.001000000     3.495000000
O     2.285000000    -1.961000000     2.065000000
H     1.758000000    -1.597000000     1.354000000
H     2.272000000    -1.284000000     2.743000000
O     0.033000000    -2.729000000    -6.374000000
H     0.354000000    -3.449000000    -5.831000000
H     0.806000000    -2.425000000    -6.850000000
O     4.157000000     0.685000000    -2.409000000
H     4.105000000    -0.192000000    -2.027000000
H     5.090000000     0.896000000    -2.399000000
O    -2.427000000    -4.826000000     2.844000000
H    -3.087000000    -5.219000000     3.416000000
H    -2.886000000    -4.674000000     2.018000000
O    -3.721000000     3.487000000     4.269000000
H    -3.582000000     4.285000000     3.758000000
H    -3.284000000     2.801000000     3.765000000
O    -3.638000000    -4.698000000     0.017000000
H    -4.362000000    -4.969000000    -0.547000000
H    -2.976000000    -5.379000000    -0.099000000
O     4.553000000    -0.132000000     1.688000000
H     3.896000000     0.382000000     1.219000000
H     4.158000000    -0.303000000     2.543000000
O    -2.565000000     4.538000000     0.606000000
H    -3.337000000     4.099000000     0.248000000
H    -2.239000000     3.939000000     1.278000000
O    -4.208000000    -1.223000000     3.599000000
H    -3.384000000    -1.231000000     4.086000000
H    -3.995000000    -1.634000000     2.761000000
O    -1.489000000    -2.982000000     4.853000000
H    -1.728000000    -3.524000000     4.101000000
H    -0.597000000    -3.253000000     5.070000000
O     1.033000000    -4.594000000    -4.894000000
H     1.904000000    -4.229000000    -4.738000000
H     0.782000000    -4.982000000    -4.055000000
O     3.036000000     0.131000000     4.139000000
H     2.219000000     0.578000000     4.362000000
H     3.494000000     0.040000000     4.975000000
O    -1.533000000     6.889000000     0.116000000
H    -0.582000000     6.853000000     0.011000000
H    -1.769000000     6.025000000     0.454000000
O    -1.178000000     0.109000000    -5.186000000
H    -0.690000000    -0.654000000    -5.496000000
H    -1.947000000    -0.260000000    -4.750000000
O    -3.896000000    -2.250000000     1.037000000
H    -3.786000000    -3.183000000     0.852000000
H    -4.797000000    -2.059000000     0.776000000
O     3.532000000    -4.564000000    -3.257000000
H     3.937000000    -3.902000000    -2.697000000
H     4.056000000    -5.352000000    -3.114000000
O    -5.800000000     2.919000000     0.203000000
H    -4.984000000     2.916000000    -0.297000000
H    -5.574000000     2.504000000     1.035000000
O    -4.413000000     0.741000000     5.709000000
H    -3.498000000     0.470000000     5.787000000
H    -4.907000000    -0.078000000     5.713000000
O    -2.041000000    -0.468000000     5.514000000
H    -1.537000000    -1.277000000     5.427000000
H    -1.824000000     0.035000000     4.730000000
O     1.400000000    -4.991000000    -0.192000000
H     1.951000000    -5.755000000    -0.360000000
H     1.057000000    -5.133000000     0.690000000
O    -4.465000000     5.945000000     2.889000000
H    -4.008000000     6.662000000     2.451000000
H    -5.244000000     5.794000000     2.354000000
O     0.206000000    -5.574000000     2.541000000
H     0.141000000    -6.517000000     2.696000000
H    -0.689000000    -5.251000000     2.646000000
