161
-3066.67547
C     0.813000000     0.902000000    -0.746000000
H     1.500000000     1.408000000    -1.419000000
C     0.649000000    -0.478000000    -0.942000000
H     1.121000000    -0.953000000    -1.798000000
C    -0.227000000    -1.201000000    -0.176000000
C    -0.392000000    -2.653000000    -0.554000000
H    -1.356000000    -3.055000000    -0.238000000
H    -0.272000000    -2.728000000    -1.637000000
H     0.369000000    -3.340000000    -0.177000000
C    -0.921000000    -0.529000000     0.879000000
H    -1.579000000    -1.113000000     1.518000000
C    -0.723000000     0.826000000     1.119000000
H    -1.089000000     1.387000000     1.975000000
C     0.183000000     1.504000000     0.306000000
C     0.483000000     2.981000000     0.482000000
O     0.026000000     3.510000000     1.512000000
O     1.409000000     3.530000000    -0.105000000
O     1.023000000     5.834000000     2.459000000
H     1.955000000     5.941000000     2.267000000
H     0.827000000     4.933000000     2.204000000
O     5.425000000     3.147000000    -3.507000000
H     4.787000000     3.560000000    -2.925000000
H     5.413000000     3.687000000    -4.297000000
O     0.696000000     7.247000000     4.956000000
H     0.932000000     6.779000000     4.155000000
H     1.042000000     8.130000000     4.828000000
O     4.862000000    -4.754000000    -1.289000000
H     3.993000000    -4.979000000    -1.623000000
H     4.690000000    -4.272000000    -0.480000000
O     5.465000000    -1.189000000    -3.337000000
H     5.754000000    -1.995000000    -2.910000000
H     5.844000000    -0.488000000    -2.806000000
O     5.129000000     4.299000000     1.458000000
H     5.141000000     4.028000000     2.376000000
H     4.639000000     5.121000000     1.457000000
O    -2.749000000     4.084000000     0.459000000
H    -3.095000000     4.676000000    -0.209000000
H    -1.827000000     4.329000000     0.542000000
O    -3.171000000     0.470000000    -0.805000000
H    -2.966000000     0.908000000    -1.631000000
H    -2.640000000     0.928000000    -0.153000000
O     0.150000000     0.266000000    -4.357000000
H     0.933000000    -0.057000000    -3.911000000
H    -0.451000000    -0.479000000    -4.357000000
O    -4.481000000    -6.319000000     2.568000000
H    -3.988000000    -5.530000000     2.340000000
H    -4.592000000    -6.781000000     1.737000000
O    -0.877000000     7.666000000     1.554000000
H    -0.357000000     6.872000000     1.677000000
H    -0.628000000     8.231000000     2.285000000
O     1.340000000    -4.434000000     3.299000000
H     1.993000000    -3.769000000     3.519000000
H     1.836000000    -5.252000000     3.258000000
O     3.353000000     4.480000000    -2.057000000
H     3.208000000     5.373000000    -1.745000000
H     2.639000000     3.973000000    -1.670000000
O     4.565000000    -3.895000000     1.354000000
H     4.954000000    -4.760000000     1.487000000
H     4.319000000    -3.605000000     2.232000000
O     3.924000000     2.139000000     0.140000000
H     4.495000000     2.796000000     0.537000000
H     3.086000000     2.587000000     0.026000000
O     2.806000000     0.329000000     1.831000000
H     2.014000000     0.167000000     1.318000000
H     3.356000000     0.865000000     1.259000000
O    -0.063000000    -4.315000000    -5.301000000
H    -0.349000000    -5.011000000    -5.893000000
H    -0.556000000    -4.468000000    -4.495000000
O     0.541000000     5.789000000    -0.974000000
H     1.242000000     6.382000000    -0.702000000
H     0.876000000     4.915000000    -0.774000000
O     1.623000000     2.355000000     3.258000000
H     1.987000000     1.544000000     2.902000000
H     1.079000000     2.704000000     2.551000000
O    -1.099000000     3.157000000     4.653000000
H    -1.174000000     3.504000000     3.764000000
H    -0.184000000     2.884000000     4.726000000
O     2.334000000    -5.738000000    -2.185000000
H     2.768000000    -6.510000000    -2.549000000
H     1.414000000    -5.991000000    -2.114000000
O     2.758000000     1.688000000    -5.491000000
H     3.056000000     0.962000000    -4.943000000
H     3.522000000     1.919000000    -6.019000000
O    -2.554000000    -2.760000000     3.969000000
H    -2.406000000    -3.613000000     4.377000000
H    -1.675000000    -2.422000000     3.795000000
O    -4.039000000     5.019000000     3.457000000
H    -4.150000000     5.528000000     2.654000000
H    -3.751000000     4.157000000     3.157000000
O    -3.352000000     1.471000000     4.794000000
H    -3.468000000     1.668000000     3.865000000
H    -2.770000000     2.160000000     5.114000000
O    -2.192000000     1.822000000    -2.966000000
H    -1.578000000     1.176000000    -3.315000000
H    -1.699000000     2.642000000    -2.958000000
O    -2.390000000    -6.705000000    -0.961000000
H    -2.795000000    -5.865000000    -0.744000000
H    -3.125000000    -7.273000000    -1.191000000
O    -1.166000000    -5.412000000     2.137000000
H    -0.905000000    -6.333000000     2.149000000
H    -0.344000000    -4.929000000     2.227000000
O     4.357000000     3.461000000     4.196000000
H     4.149000000     4.085000000     4.891000000
H     3.507000000     3.114000000     3.923000000
O     3.594000000     6.400000000     2.370000000
H     3.637000000     7.192000000     1.834000000
H     4.364000000     6.451000000     2.937000000
O     3.148000000     6.966000000    -0.712000000
H     4.067000000     6.857000000    -0.955000000
H     3.144000000     7.725000000    -0.127000000
O    -4.176000000    -1.437000000    -2.463000000
H    -5.075000000    -1.435000000    -2.791000000
H    -4.143000000    -0.702000000    -1.851000000
O    -1.309000000     5.499000000    -2.874000000
H    -0.701000000     4.869000000    -3.260000000
H    -0.851000000     5.834000000    -2.104000000
O    -0.226000000    -7.658000000     0.639000000
H    -0.973000000    -7.313000000     0.150000000
H    -0.315000000    -8.609000000     0.573000000
O    -3.454000000    -3.811000000    -1.323000000
H    -3.723000000    -2.934000000    -1.597000000
H    -3.565000000    -3.809000000    -0.372000000
O    -3.298000000    -3.948000000     1.391000000
H    -3.298000000    -3.101000000     1.838000000
H    -2.557000000    -4.420000000     1.771000000
O    -3.673000000     2.376000000     2.398000000
H    -3.226000000     2.908000000     1.740000000
H    -4.540000000     2.213000000     2.026000000
O     2.830000000    -0.672000000    -4.035000000
H     3.675000000    -0.770000000    -3.597000000
H     2.544000000    -1.570000000    -4.205000000
O    -2.769000000    -1.127000000     6.009000000
H    -2.801000000    -0.243000000     5.642000000
H    -2.816000000    -1.705000000     5.247000000
O     0.509000000     2.940000000    -3.793000000
H     0.706000000     2.014000000    -3.934000000
H     1.251000000     3.405000000    -4.179000000
O    -2.205000000    -4.584000000    -3.518000000
H    -3.020000000    -4.961000000    -3.850000000
H    -2.372000000    -4.434000000    -2.588000000
O    -4.968000000    -1.125000000     0.838000000
H    -5.643000000    -1.086000000     0.161000000
H    -4.376000000    -0.402000000     0.628000000
O    -1.809000000    -1.646000000    -3.794000000
H    -2.615000000    -1.564000000    -3.285000000
H    -1.906000000    -2.475000000    -4.263000000
O    -0.620000000    -7.205000000    -3.237000000
H    -0.798000000    -7.789000000    -2.500000000
H    -1.226000000    -6.474000000    -3.114000000
O     2.131000000    -3.181000000    -4.227000000
H     1.682000000    -3.678000000    -4.910000000
H     2.050000000    -3.724000000    -3.442000000
O     5.766000000     0.872000000    -1.775000000
H     5.780000000     1.685000000    -2.280000000
H     5.091000000     1.013000000    -1.111000000
O     2.373000000    -7.684000000     0.886000000
H     2.476000000    -8.545000000     0.482000000
H     1.470000000    -7.434000000     0.690000000
O    -5.321000000    -0.786000000     4.254000000
H    -4.663000000    -0.187000000     4.606000000
H    -5.251000000    -0.688000000     3.304000000
