161
-3083.05102
C    -0.281000000     1.204000000    -0.698000000
H    -0.483000000     2.070000000    -1.323000000
C     0.677000000     0.270000000    -1.128000000
H     1.318000000     0.502000000    -1.975000000
C     0.872000000    -0.854000000    -0.320000000
C     1.816000000    -1.960000000    -0.776000000
H     1.645000000    -2.812000000    -0.115000000
H     1.721000000    -2.312000000    -1.805000000
H     2.854000000    -1.671000000    -0.601000000
C     0.080000000    -0.945000000     0.847000000
H     0.174000000    -1.858000000     1.429000000
C    -0.857000000     0.014000000     1.266000000
H    -1.373000000    -0.036000000     2.221000000
C    -1.099000000     1.086000000     0.415000000
C    -2.113000000     2.131000000     0.757000000
O    -3.134000000     1.888000000     1.356000000
O    -1.824000000     3.285000000     0.451000000
O    -2.140000000    -2.529000000    -4.258000000
H    -1.199000000    -2.453000000    -4.416000000
H    -2.408000000    -3.293000000    -4.768000000
O     0.045000000    -4.626000000     0.838000000
H     0.508000000    -4.417000000     0.026000000
H    -0.799000000    -4.973000000     0.549000000
O     0.785000000     4.124000000     0.467000000
H     0.375000000     3.265000000     0.363000000
H     0.824000000     4.257000000     1.414000000
O    -5.242000000     2.266000000    -1.776000000
H    -4.686000000     2.997000000    -2.046000000
H    -5.433000000     2.439000000    -0.854000000
O    -2.409000000    -5.603000000     0.298000000
H    -2.643000000    -4.677000000     0.239000000
H    -3.067000000    -6.052000000    -0.232000000
O     2.212000000     2.188000000     4.809000000
H     1.686000000     2.537000000     5.528000000
H     1.718000000     2.412000000     4.020000000
O    -4.138000000     0.014000000    -3.092000000
H    -3.377000000    -0.360000000    -2.647000000
H    -4.336000000     0.810000000    -2.598000000
O    -5.688000000     2.852000000     0.858000000
H    -4.882000000     2.478000000     1.214000000
H    -6.278000000     2.909000000     1.610000000
O    -3.101000000     3.601000000     3.582000000
H    -3.213000000     2.887000000     2.955000000
H    -2.771000000     4.331000000     3.057000000
O    -1.888000000    -1.469000000    -1.832000000
H    -1.587000000    -1.923000000    -2.619000000
H    -1.586000000    -0.568000000    -1.945000000
O    -0.031000000     3.701000000    -3.554000000
H    -0.784000000     3.112000000    -3.593000000
H    -0.274000000     4.438000000    -4.114000000
O     4.482000000     1.634000000    -1.181000000
H     3.964000000     2.438000000    -1.223000000
H     4.355000000     1.315000000    -0.288000000
O    -6.922000000     0.141000000    -1.629000000
H    -7.657000000     0.679000000    -1.334000000
H    -6.181000000     0.745000000    -1.662000000
O    -0.614000000     6.551000000    -1.011000000
H     0.062000000     7.197000000    -1.218000000
H    -0.144000000     5.847000000    -0.566000000
O    -3.318000000    -3.832000000     2.729000000
H    -3.401000000    -3.822000000     1.776000000
H    -4.073000000    -4.337000000     3.030000000
O     4.759000000     1.536000000     2.997000000
H     3.982000000     1.380000000     3.534000000
H     4.597000000     1.045000000     2.192000000
O     6.460000000    -0.866000000    -0.146000000
H     7.103000000    -1.529000000    -0.397000000
H     6.625000000    -0.135000000    -0.742000000
O     2.228000000     3.610000000    -2.043000000
H     1.464000000     3.831000000    -2.575000000
H     1.874000000     3.456000000    -1.167000000
O     4.215000000    -0.360000000     1.201000000
H     4.215000000    -0.871000000     2.011000000
H     4.917000000    -0.745000000     0.675000000
O     2.955000000    -5.301000000    -2.580000000
H     2.164000000    -4.973000000    -2.154000000
H     2.821000000    -5.117000000    -3.510000000
O    -5.404000000     4.461000000     4.971000000
H    -4.666000000     4.319000000     4.378000000
H    -6.126000000     3.971000000     4.576000000
O     0.864000000    -2.519000000    -4.309000000
H     1.547000000    -1.863000000    -4.448000000
H     1.263000000    -3.342000000    -4.592000000
O    -2.429000000     2.243000000    -4.192000000
H    -2.736000000     1.425000000    -4.583000000
H    -2.777000000     2.927000000    -4.764000000
O    -2.273000000    -1.556000000     5.576000000
H    -3.186000000    -1.293000000     5.688000000
H    -2.322000000    -2.445000000     5.223000000
O    -1.777000000     5.537000000     1.609000000
H    -1.785000000     6.170000000     0.892000000
H    -1.729000000     4.685000000     1.176000000
O     2.981000000    -5.482000000     0.342000000
H     3.420000000    -4.738000000     0.753000000
H     3.103000000    -5.343000000    -0.597000000
O     3.055000000    -1.384000000     3.650000000
H     2.190000000    -1.022000000     3.457000000
H     3.268000000    -1.045000000     4.520000000
O    -6.725000000     4.827000000    -0.809000000
H    -6.042000000     5.497000000    -0.859000000
H    -6.339000000     4.131000000    -0.278000000
O    -4.479000000    -0.549000000     0.875000000
H    -3.951000000     0.245000000     0.787000000
H    -3.956000000    -1.232000000     0.456000000
O    -6.930000000     2.592000000     3.740000000
H    -6.354000000     1.861000000     3.515000000
H    -7.810000000     2.216000000     3.724000000
O    -3.340000000     4.334000000    -1.395000000
H    -3.539000000     5.204000000    -1.050000000
H    -2.772000000     3.938000000    -0.734000000
O     0.397000000    -4.678000000    -1.875000000
H     0.239000000    -3.847000000    -2.324000000
H    -0.242000000    -5.281000000    -2.254000000
O    -1.299000000    -4.440000000     4.600000000
H    -1.936000000    -4.365000000     3.889000000
H    -0.452000000    -4.497000000     4.158000000
O     2.688000000    -0.712000000    -5.121000000
H     3.446000000    -0.685000000    -4.538000000
H     2.272000000     0.144000000    -5.014000000
O     4.581000000    -0.526000000    -3.167000000
H     4.753000000    -1.443000000    -2.953000000
H     4.606000000    -0.074000000    -2.324000000
O     1.126000000    -4.672000000     3.392000000
H     1.051000000    -4.330000000     2.501000000
H     1.879000000    -5.261000000     3.360000000
O    -2.683000000    -3.063000000     0.082000000
H    -2.585000000    -2.520000000    -0.700000000
H    -1.988000000    -2.766000000     0.669000000
O     5.563000000    -3.696000000    -2.849000000
H     4.657000000    -3.999000000    -2.917000000
H     6.004000000    -4.373000000    -2.335000000
O     0.255000000    -0.856000000     4.485000000
H     0.812000000    -0.702000000     5.248000000
H    -0.610000000    -1.038000000     4.854000000
O    -5.015000000     0.671000000     3.313000000
H    -4.510000000     0.280000000     4.026000000
H    -4.537000000     0.427000000     2.520000000
O     4.815000000     2.738000000    -3.837000000
H     5.080000000     2.456000000    -2.961000000
H     3.875000000     2.901000000    -3.762000000
O     0.093000000     2.981000000     3.125000000
H     0.111000000     3.918000000     3.321000000
H    -0.770000000     2.692000000     3.423000000
O     1.617000000     1.877000000    -5.391000000
H     2.161000000     2.658000000    -5.491000000
H     0.852000000     2.180000000    -4.901000000
O     0.306000000    -7.228000000     2.168000000
H    -0.599000000    -7.382000000     2.439000000
H     0.369000000    -6.277000000     2.076000000
O     2.696000000    -4.111000000    -5.180000000
H     3.081000000    -3.246000000    -5.319000000
H     3.120000000    -4.669000000    -5.833000000
O    -7.419000000    -0.389000000     1.220000000
H    -7.612000000    -0.556000000     0.297000000
H    -6.465000000    -0.324000000     1.257000000
O     3.927000000    -3.397000000     1.751000000
H     4.868000000    -3.410000000     1.928000000
H     3.577000000    -2.747000000     2.360000000
O    -2.482000000     5.759000000    -3.531000000
H    -1.614000000     5.833000000    -3.135000000
H    -2.951000000     5.142000000    -2.970000000
