161
-3014.64431
C    -1.159000000    -0.156000000    -0.875000000
H    -1.892000000    -0.278000000    -1.669000000
C    -0.096000000    -1.075000000    -0.781000000
H    -0.069000000    -1.811000000    -1.580000000
C     0.942000000    -0.866000000     0.099000000
C     2.176000000    -1.713000000     0.103000000
H     2.013000000    -2.791000000     0.149000000
H     2.552000000    -1.672000000    -0.921000000
H     2.864000000    -1.397000000     0.890000000
C     0.787000000     0.227000000     1.013000000
H     1.596000000     0.368000000     1.725000000
C    -0.277000000     1.152000000     0.944000000
H    -0.281000000     2.036000000     1.578000000
C    -1.232000000     0.991000000    -0.062000000
C    -2.353000000     2.007000000    -0.190000000
O    -2.657000000     2.717000000     0.794000000
O    -2.919000000     2.261000000    -1.210000000
O     0.784000000    -2.125000000     2.985000000
H    -0.043000000    -1.988000000     2.524000000
H     1.143000000    -1.245000000     3.101000000
O    -3.947000000     7.177000000     1.813000000
H    -4.748000000     6.706000000     1.585000000
H    -4.229000000     7.841000000     2.442000000
O     3.554000000     3.270000000    -0.820000000
H     3.917000000     2.445000000    -0.497000000
H     3.028000000     3.601000000    -0.092000000
O    -3.626000000     2.193000000    -3.828000000
H    -4.558000000     1.989000000    -3.902000000
H    -3.437000000     2.115000000    -2.893000000
O     4.957000000    -2.932000000    -0.501000000
H     5.591000000    -2.248000000    -0.716000000
H     4.636000000    -2.696000000     0.370000000
O     1.677000000     0.658000000     4.200000000
H     0.832000000     0.364000000     4.540000000
H     1.963000000     1.331000000     4.818000000
O    -4.504000000    -0.656000000    -4.612000000
H    -4.124000000    -1.531000000    -4.696000000
H    -3.984000000    -0.111000000    -5.202000000
O    -0.814000000    -5.377000000    -4.719000000
H    -1.021000000    -5.906000000    -5.489000000
H    -0.511000000    -4.542000000    -5.077000000
O    -5.262000000     2.572000000     0.589000000
H    -4.362000000     2.618000000     0.267000000
H    -5.435000000     1.635000000     0.687000000
O    -5.825000000     5.001000000     2.086000000
H    -5.936000000     4.200000000     1.574000000
H    -5.573000000     4.696000000     2.957000000
O    -3.448000000     3.057000000     3.375000000
H    -3.462000000     2.696000000     2.489000000
H    -2.762000000     3.724000000     3.352000000
O    -7.069000000     4.126000000    -0.938000000
H    -6.572000000     3.415000000    -0.534000000
H    -6.403000000     4.691000000    -1.329000000
O    -0.604000000     2.158000000    -3.624000000
H    -1.440000000     1.728000000    -3.446000000
H    -0.617000000     2.943000000    -3.077000000
O    -5.870000000    -1.522000000    -2.445000000
H    -5.458000000    -0.892000000    -3.036000000
H    -5.168000000    -1.786000000    -1.849000000
O    -2.220000000    -2.509000000     1.906000000
H    -1.701000000    -3.085000000     1.344000000
H    -2.790000000    -3.103000000     2.395000000
O     4.753000000     2.355000000     4.186000000
H     3.970000000     2.706000000     4.611000000
H     4.512000000     1.460000000     3.943000000
O     4.641000000     0.489000000    -1.821000000
H     4.831000000    -0.166000000    -2.493000000
H     5.301000000     1.169000000    -1.955000000
O     1.913000000    -0.114000000    -3.173000000
H     1.163000000     0.458000000    -3.009000000
H     2.460000000    -0.021000000    -2.393000000
O     4.661000000     1.317000000     0.792000000
H     4.545000000     0.789000000     1.582000000
H     4.474000000     0.716000000     0.072000000
O     4.604000000    -4.152000000    -2.798000000
H     4.636000000    -4.036000000    -1.848000000
H     5.519000000    -4.267000000    -3.056000000
O    -5.783000000     4.181000000     4.825000000
H    -5.108000000     3.549000000     4.577000000
H    -6.605000000     3.699000000     4.738000000
O     0.318000000    -3.048000000    -5.584000000
H     0.902000000    -3.089000000    -4.826000000
H     0.864000000    -2.701000000    -6.289000000
O    -7.490000000     0.156000000    -0.558000000
H    -6.796000000    -0.084000000    -1.172000000
H    -7.611000000    -0.624000000    -0.016000000
O    -3.714000000     1.737000000     5.808000000
H    -3.450000000     1.667000000     4.890000000
H    -4.623000000     1.437000000     5.819000000
O    -2.242000000    -0.512000000     3.895000000
H    -3.163000000    -0.502000000     4.153000000
H    -2.171000000    -1.248000000     3.287000000
O    -1.883000000     5.386000000     0.524000000
H    -1.853000000     4.450000000     0.721000000
H    -2.781000000     5.646000000     0.732000000
O     0.470000000    -5.837000000     2.402000000
H     0.046000000    -5.188000000     1.840000000
H    -0.215000000    -6.110000000     3.012000000
O     4.193000000    -0.083000000     3.063000000
H     3.391000000    -0.088000000     3.586000000
H     4.688000000    -0.840000000     3.375000000
O    -1.858000000     7.733000000    -0.853000000
H    -1.994000000     6.990000000    -0.265000000
H    -1.162000000     8.242000000    -0.439000000
O    -5.105000000     5.361000000    -2.205000000
H    -5.204000000     6.313000000    -2.188000000
H    -4.252000000     5.216000000    -2.614000000
O     5.977000000    -3.301000000     3.432000000
H     6.369000000    -2.961000000     4.236000000
H     6.723000000    -3.571000000     2.897000000
O    -4.611000000    -1.394000000     0.074000000
H    -3.738000000    -1.637000000     0.382000000
H    -5.044000000    -1.025000000     0.844000000
O    -3.209000000    -3.202000000    -2.631000000
H    -3.244000000    -3.038000000    -3.574000000
H    -2.342000000    -3.580000000    -2.486000000
O    -1.774000000     4.600000000    -2.097000000
H    -1.757000000     5.079000000    -1.268000000
H    -2.385000000     3.879000000    -1.945000000
O    -0.551000000    -4.182000000    -2.381000000
H     0.297000000    -3.825000000    -2.646000000
H    -0.835000000    -4.706000000    -3.130000000
O     3.404000000    -0.319000000    -5.783000000
H     3.775000000    -0.450000000    -4.910000000
H     3.779000000    -1.024000000    -6.311000000
O     1.968000000    -3.237000000    -3.525000000
H     2.725000000    -3.774000000    -3.292000000
H     2.297000000    -2.338000000    -3.510000000
O     1.265000000    -4.429000000     5.002000000
H     1.533000000    -5.149000000     4.432000000
H     0.980000000    -3.741000000     4.401000000
O    -4.366000000     4.564000000    -5.177000000
H    -4.250000000     3.745000000    -4.695000000
H    -4.888000000     4.321000000    -5.941000000
O    -0.913000000    -4.543000000     0.423000000
H    -0.369000000    -4.321000000    -0.333000000
H    -1.498000000    -5.230000000     0.104000000
O     3.898000000    -4.882000000     2.343000000
H     4.296000000    -4.151000000     2.816000000
H     2.986000000    -4.620000000     2.221000000
O     0.586000000     5.907000000     1.494000000
H     1.147000000     5.168000000     1.730000000
H    -0.108000000     5.519000000     0.961000000
O     5.124000000    -1.301000000    -3.624000000
H     4.890000000    -2.203000000    -3.406000000
H     5.735000000    -1.382000000    -4.357000000
O    -5.722000000     0.035000000     2.013000000
H    -5.255000000     0.019000000     2.848000000
H    -6.613000000    -0.241000000     2.232000000
O     2.464000000     3.850000000     2.254000000
H     2.309000000     4.145000000     3.151000000
H     2.354000000     2.900000000     2.291000000
O    -5.342000000    -4.129000000    -1.044000000
H    -4.569000000    -3.884000000    -1.552000000
H    -5.547000000    -3.349000000    -0.529000000
O    -1.950000000     5.252000000     3.650000000
H    -2.203000000     6.171000000     3.570000000
H    -1.059000000     5.218000000     3.302000000
O    -1.323000000     6.441000000    -4.048000000
H    -0.424000000     6.510000000    -3.726000000
H    -1.641000000     5.612000000    -3.690000000
