161
-3041.09157
C    -0.551000000    -0.570000000    -1.277000000
H    -0.853000000    -1.087000000    -2.184000000
C     0.796000000    -0.328000000    -1.052000000
H     1.604000000    -0.607000000    -1.723000000
C     1.177000000     0.371000000     0.142000000
C     2.586000000     0.473000000     0.531000000
H     3.110000000     1.311000000     0.066000000
H     2.561000000     0.578000000     1.617000000
H     3.117000000    -0.455000000     0.309000000
C     0.217000000     0.807000000     1.024000000
H     0.508000000     1.326000000     1.934000000
C    -1.101000000     0.411000000     0.800000000
H    -1.803000000     0.526000000     1.622000000
C    -1.500000000    -0.315000000    -0.298000000
C    -2.924000000    -0.714000000    -0.462000000
O    -3.754000000    -0.093000000     0.138000000
O    -3.197000000    -1.639000000    -1.195000000
O    -6.107000000    -0.701000000    -1.031000000
H    -5.292000000    -0.369000000    -0.654000000
H    -5.913000000    -1.611000000    -1.257000000
O    -1.201000000     3.434000000    -0.916000000
H    -0.335000000     3.782000000    -0.705000000
H    -1.118000000     2.490000000    -0.785000000
O    -6.988000000    -1.445000000     2.060000000
H    -7.633000000    -0.787000000     2.323000000
H    -6.718000000    -1.178000000     1.181000000
O    -4.507000000     4.640000000     2.472000000
H    -4.894000000     3.789000000     2.268000000
H    -4.036000000     4.886000000     1.675000000
O    -2.532000000    -2.107000000    -5.488000000
H    -3.121000000    -1.837000000    -4.784000000
H    -1.684000000    -2.224000000    -5.060000000
O    -4.161000000    -5.179000000     1.599000000
H    -4.368000000    -4.312000000     1.948000000
H    -4.966000000    -5.459000000     1.161000000
O     2.946000000    -1.349000000     5.984000000
H     3.608000000    -0.659000000     6.019000000
H     2.758000000    -1.454000000     5.051000000
O    -4.765000000     2.019000000     1.560000000
H    -4.586000000     1.277000000     0.982000000
H    -4.147000000     1.913000000     2.283000000
O     2.597000000    -1.806000000    -4.651000000
H     1.894000000    -1.164000000    -4.748000000
H     3.371000000    -1.285000000    -4.441000000
O     2.324000000     5.954000000    -2.190000000
H     2.278000000     5.008000000    -2.050000000
H     2.287000000     6.329000000    -1.311000000
O     2.306000000     2.083000000     6.235000000
H     2.822000000     2.667000000     6.790000000
H     2.956000000     1.593000000     5.732000000
O    -1.670000000    -3.701000000     1.027000000
H    -1.922000000    -4.622000000     1.092000000
H    -2.500000000    -3.231000000     0.947000000
O     6.557000000    -0.434000000    -0.305000000
H     6.413000000     0.355000000     0.218000000
H     5.711000000    -0.606000000    -0.717000000
O    -2.984000000    -3.111000000     5.266000000
H    -2.784000000    -4.018000000     5.038000000
H    -2.169000000    -2.636000000     5.098000000
O     1.933000000     1.368000000    -4.357000000
H     2.158000000     2.042000000    -4.998000000
H     1.227000000     0.870000000    -4.769000000
O     2.766000000    -1.910000000     3.300000000
H     3.420000000    -1.495000000     2.737000000
H     2.012000000    -2.051000000     2.728000000
O     4.808000000    -3.115000000     1.214000000
H     4.145000000    -3.562000000     1.740000000
H     5.267000000    -3.820000000     0.757000000
O     4.237000000     2.008000000     2.838000000
H     4.505000000     1.500000000     3.604000000
H     3.931000000     2.840000000     3.198000000
O     5.035000000     0.859000000     5.190000000
H     5.343000000     0.880000000     6.096000000
H     5.603000000     0.221000000     4.759000000
O    -2.429000000     5.603000000     3.964000000
H    -1.843000000     5.081000000     3.415000000
H    -3.281000000     5.538000000     3.534000000
O     0.389000000     3.424000000     4.875000000
H     1.102000000     3.124000000     5.438000000
H    -0.104000000     4.039000000     5.419000000
O     0.641000000    -2.388000000     1.147000000
H     0.619000000    -1.571000000     0.648000000
H    -0.171000000    -2.837000000     0.908000000
O    -3.113000000     4.988000000     0.139000000
H    -3.807000000     4.613000000    -0.402000000
H    -2.326000000     4.504000000    -0.112000000
O     4.200000000     5.118000000     0.199000000
H     4.475000000     5.972000000     0.533000000
H     4.215000000     4.544000000     0.965000000
O     7.846000000    -2.320000000     1.231000000
H     7.325000000    -1.676000000     0.751000000
H     8.504000000    -1.800000000     1.692000000
O     3.945000000     0.335000000    -2.980000000
H     4.168000000     1.079000000    -2.420000000
H     3.296000000     0.683000000    -3.593000000
O    -7.761000000     1.885000000    -1.626000000
H    -7.243000000     1.466000000    -2.313000000
H    -8.385000000     1.213000000    -1.352000000
O    -5.555000000    -3.509000000    -0.986000000
H    -5.202000000    -3.817000000    -1.820000000
H    -4.850000000    -3.662000000    -0.356000000
O    -3.519000000     1.795000000    -5.155000000
H    -3.707000000     1.103000000    -4.521000000
H    -3.784000000     2.602000000    -4.714000000
O    -6.110000000     4.030000000    -0.310000000
H    -6.943000000     3.596000000    -0.494000000
H    -5.633000000     3.409000000     0.241000000
O    -0.009000000    -0.446000000    -5.848000000
H     0.065000000    -1.214000000    -6.415000000
H    -0.934000000    -0.201000000    -5.896000000
O     0.034000000    -2.897000000    -4.215000000
H     0.851000000    -2.721000000    -4.681000000
H     0.308000000    -3.112000000    -3.324000000
O    -1.201000000     1.088000000     6.285000000
H    -0.433000000     0.615000000     6.607000000
H    -0.930000000     2.006000000     6.276000000
O     1.340000000     4.040000000     0.243000000
H     0.993000000     4.196000000     1.122000000
H     2.249000000     4.335000000     0.288000000
O     0.942000000    -5.092000000     1.525000000
H     0.126000000    -5.477000000     1.206000000
H     0.802000000    -4.147000000     1.462000000
O    -4.189000000    -1.121000000    -3.601000000
H    -5.065000000    -0.915000000    -3.274000000
H    -3.705000000    -1.406000000    -2.826000000
O    -8.830000000    -0.679000000    -1.143000000
H    -8.914000000    -1.403000000    -1.763000000
H    -7.887000000    -0.582000000    -1.014000000
O    -5.158000000     3.172000000    -3.158000000
H    -5.849000000     3.410000000    -3.776000000
H    -5.570000000     3.244000000    -2.297000000
O     0.531000000    -3.948000000    -1.718000000
H     1.307000000    -4.466000000    -1.931000000
H     0.323000000    -4.188000000    -0.815000000
O     3.089000000     4.264000000     3.880000000
H     2.139000000     4.337000000     3.974000000
H     3.432000000     5.054000000     4.298000000
O     6.067000000     2.094000000     0.857000000
H     5.283000000     2.004000000     1.400000000
H     6.742000000     2.404000000     1.461000000
O     5.681000000    -0.755000000     2.720000000
H     5.688000000    -1.535000000     2.166000000
H     6.569000000    -0.703000000     3.073000000
O    -4.203000000    -2.223000000     1.954000000
H    -5.128000000    -2.021000000     2.100000000
H    -3.857000000    -1.450000000     1.508000000
O    -1.029000000     3.588000000     2.579000000
H    -0.961000000     2.852000000     1.970000000
H    -0.364000000     3.411000000     3.245000000
O     0.198000000    -2.744000000     5.548000000
H     0.188000000    -2.808000000     6.503000000
H     0.285000000    -1.807000000     5.371000000
O     5.256000000     2.896000000    -1.841000000
H     4.825000000     3.744000000    -1.741000000
H     5.601000000     2.699000000    -0.970000000
O    -2.505000000    -4.042000000    -1.658000000
H    -1.632000000    -3.892000000    -2.020000000
H    -2.831000000    -3.167000000    -1.448000000
O    -2.990000000     1.080000000     3.842000000
H    -3.504000000     0.726000000     4.568000000
H    -2.307000000     1.601000000     4.265000000
