161
-3058.85708
C    -0.610000000    -1.246000000    -0.581000000
H    -0.938000000    -2.157000000    -1.075000000
C     0.696000000    -1.116000000    -0.101000000
H     1.393000000    -1.947000000    -0.034000000
C     1.149000000     0.121000000     0.431000000
C     2.587000000     0.241000000     0.848000000
H     2.757000000     1.262000000     1.196000000
H     2.928000000    -0.448000000     1.623000000
H     3.207000000     0.100000000    -0.040000000
C     0.289000000     1.206000000     0.508000000
H     0.572000000     2.158000000     0.949000000
C    -0.998000000     1.086000000     0.004000000
H    -1.659000000     1.945000000     0.083000000
C    -1.520000000    -0.133000000    -0.507000000
C    -2.949000000    -0.357000000    -0.943000000
O    -3.578000000     0.678000000    -0.924000000
O    -3.332000000    -1.394000000    -1.438000000
O    -6.783000000    -4.319000000     0.303000000
H    -6.297000000    -4.080000000    -0.486000000
H    -6.673000000    -3.569000000     0.888000000
O    -0.051000000    -3.097000000     3.525000000
H    -0.810000000    -2.894000000     2.978000000
H    -0.421000000    -3.515000000     4.303000000
O    -7.841000000    -1.021000000    -2.637000000
H    -7.057000000    -1.246000000    -2.137000000
H    -8.153000000    -1.857000000    -2.983000000
O     0.624000000     1.499000000    -2.753000000
H     1.091000000     2.329000000    -2.847000000
H     0.313000000     1.500000000    -1.847000000
O    -6.048000000    -0.311000000    -0.375000000
H    -6.656000000     0.420000000    -0.260000000
H    -5.254000000     0.091000000    -0.728000000
O    -2.747000000     3.562000000     3.379000000
H    -3.307000000     2.907000000     2.963000000
H    -2.541000000     4.181000000     2.678000000
O     7.342000000    -2.427000000    -0.379000000
H     7.831000000    -1.843000000     0.199000000
H     6.432000000    -2.341000000    -0.093000000
O    -2.397000000    -1.475000000    -3.992000000
H    -2.695000000    -1.530000000    -3.084000000
H    -2.072000000    -0.580000000    -4.084000000
O    -4.772000000    -4.584000000    -4.126000000
H    -5.179000000    -5.223000000    -4.711000000
H    -4.638000000    -3.810000000    -4.673000000
O    -5.140000000     3.541000000    -4.984000000
H    -5.459000000     2.945000000    -4.307000000
H    -5.701000000     3.367000000    -5.740000000
O    -3.890000000     1.341000000     1.758000000
H    -3.754000000     1.165000000     0.826000000
H    -3.214000000     0.826000000     2.199000000
O    -6.458000000     2.989000000     0.145000000
H    -6.486000000     2.371000000     0.875000000
H    -6.456000000     3.851000000     0.561000000
O    -0.965000000     1.120000000    -5.097000000
H    -0.475000000     1.340000000    -4.304000000
H    -0.424000000     0.465000000    -5.538000000
O     5.214000000     0.605000000     3.923000000
H     4.928000000     1.347000000     4.455000000
H     5.742000000     0.998000000     3.228000000
O    -3.503000000    -4.732000000     0.946000000
H    -3.425000000    -5.679000000     0.832000000
H    -3.902000000    -4.425000000     0.132000000
O     7.132000000     1.234000000    -1.397000000
H     7.910000000     1.762000000    -1.573000000
H     6.398000000     1.830000000    -1.550000000
O     1.769000000    -0.751000000    -3.703000000
H     1.258000000    -0.015000000    -3.366000000
H     1.156000000    -1.486000000    -3.705000000
O     3.306000000    -0.984000000     4.732000000
H     2.458000000    -0.577000000     4.550000000
H     3.947000000    -0.303000000     4.527000000
O     4.639000000    -1.930000000    -0.043000000
H     4.043000000    -2.654000000    -0.236000000
H     4.564000000    -1.350000000    -0.801000000
O    -2.643000000     4.821000000     0.919000000
H    -2.566000000     5.696000000     0.538000000
H    -2.971000000     4.277000000     0.203000000
O     5.109000000     3.690000000     2.068000000
H     5.644000000     3.857000000     1.292000000
H     5.173000000     4.495000000     2.581000000
O    -6.785000000     1.280000000     2.089000000
H    -7.030000000     1.857000000     2.813000000
H    -5.833000000     1.207000000     2.152000000
O     6.954000000     0.873000000     1.431000000
H     7.703000000     0.280000000     1.491000000
H     6.834000000     1.014000000     0.492000000
O     0.552000000     5.871000000     3.445000000
H     1.097000000     5.263000000     2.945000000
H     1.111000000     6.635000000     3.585000000
O    -1.995000000    -2.564000000     1.720000000
H    -1.593000000    -2.130000000     0.968000000
H    -2.422000000    -3.337000000     1.351000000
O    -3.521000000     5.576000000    -2.317000000
H    -3.023000000     5.631000000    -3.132000000
H    -3.630000000     4.637000000    -2.165000000
O     6.058000000    -2.587000000    -2.957000000
H     5.423000000    -1.910000000    -2.722000000
H     6.750000000    -2.504000000    -2.300000000
O     4.240000000    -0.246000000    -2.220000000
H     4.436000000     0.654000000    -1.960000000
H     3.469000000    -0.171000000    -2.781000000
O    -4.577000000    -3.801000000    -1.369000000
H    -4.645000000    -4.265000000    -2.203000000
H    -4.050000000    -3.027000000    -1.568000000
O    -3.496000000     0.785000000    -5.873000000
H    -4.010000000     0.767000000    -5.066000000
H    -2.644000000     1.132000000    -5.606000000
O    -5.546000000    -1.370000000    -5.067000000
H    -4.891000000    -1.736000000    -5.660000000
H    -5.039000000    -1.031000000    -4.329000000
O    -4.063000000     3.222000000    -0.993000000
H    -5.003000000     3.084000000    -0.880000000
H    -3.693000000     2.340000000    -1.028000000
O    -0.157000000    -3.296000000    -3.561000000
H    -0.987000000    -2.821000000    -3.609000000
H     0.046000000    -3.516000000    -4.470000000
O     0.372000000    -0.169000000     3.515000000
H    -0.547000000     0.065000000     3.387000000
H     0.412000000    -1.104000000     3.314000000
O     2.093000000     4.061000000    -1.883000000
H     1.406000000     4.604000000    -1.497000000
H     2.801000000     4.674000000    -2.080000000
O     0.410000000     5.691000000    -0.328000000
H     1.025000000     5.508000000     0.383000000
H    -0.135000000     6.404000000     0.005000000
O     1.021000000    -4.748000000     1.314000000
H     0.349000000    -5.338000000     0.972000000
H     0.604000000    -4.316000000     2.059000000
O    -4.601000000     0.611000000    -3.224000000
H    -5.547000000     0.732000000    -3.146000000
H    -4.275000000     0.677000000    -2.327000000
O    -2.083000000     3.213000000    -3.812000000
H    -1.961000000     2.468000000    -4.400000000
H    -2.818000000     2.959000000    -3.254000000
O     2.036000000    -4.389000000    -2.701000000
H     2.239000000    -4.138000000    -1.800000000
H     1.133000000    -4.099000000    -2.832000000
O     5.104000000    -2.066000000     2.501000000
H     5.081000000    -1.931000000     1.554000000
H     5.205000000    -1.187000000     2.866000000
O     3.089000000    -4.106000000    -0.306000000
H     2.333000000    -4.254000000     0.262000000
H     3.681000000    -4.833000000    -0.111000000
O     2.097000000     3.434000000     4.562000000
H     1.733000000     3.607000000     5.430000000
H     1.956000000     2.497000000     4.426000000
O    -6.123000000    -2.035000000     1.850000000
H    -6.509000000    -1.516000000     1.144000000
H    -5.365000000    -1.525000000     2.135000000
O     2.257000000     4.853000000     1.590000000
H     2.846000000     5.605000000     1.660000000
H     2.701000000     4.156000000     2.073000000
O     4.688000000     2.470000000    -1.050000000
H     3.864000000     2.863000000    -1.336000000
H     4.566000000     2.314000000    -0.113000000
O     4.156000000    -4.774000000     3.239000000
H     3.898000000    -4.716000000     4.159000000
H     4.431000000    -3.886000000     3.011000000
O    -2.431000000    -0.260000000     3.370000000
H    -2.209000000    -0.976000000     2.774000000
H    -2.135000000    -0.563000000     4.229000000
