161
-3036.13324
C    -1.464000000     0.078000000    -0.255000000
H    -2.518000000     0.171000000    -0.500000000
C    -0.522000000     0.916000000    -0.836000000
H    -0.869000000     1.660000000    -1.548000000
C     0.818000000     0.713000000    -0.540000000
C     1.815000000     1.578000000    -1.186000000
H     1.428000000     2.241000000    -1.962000000
H     2.264000000     2.213000000    -0.420000000
H     2.714000000     1.034000000    -1.484000000
C     1.207000000    -0.106000000     0.522000000
H     2.229000000    -0.064000000     0.887000000
C     0.267000000    -0.953000000     1.115000000
H     0.549000000    -1.767000000     1.777000000
C    -1.034000000    -0.943000000     0.646000000
C    -2.018000000    -2.004000000     1.092000000
O    -1.653000000    -2.834000000     1.934000000
O    -3.210000000    -1.926000000     0.764000000
O    -4.360000000    -4.249000000    -3.428000000
H    -4.250000000    -3.443000000    -2.923000000
H    -5.281000000    -4.246000000    -3.686000000
O     6.465000000     1.896000000    -2.968000000
H     5.610000000     2.200000000    -3.273000000
H     6.961000000     1.734000000    -3.770000000
O    -3.739000000     4.986000000    -2.970000000
H    -4.677000000     4.918000000    -2.791000000
H    -3.575000000     5.927000000    -3.031000000
O    -2.019000000     1.927000000     2.139000000
H    -2.394000000     1.613000000     2.962000000
H    -1.594000000     1.157000000     1.760000000
O    -5.322000000    -0.051000000     0.987000000
H    -4.576000000    -0.645000000     0.897000000
H    -5.141000000     0.655000000     0.367000000
O    -7.209000000    -5.340000000     1.587000000
H    -6.632000000    -6.009000000     1.957000000
H    -6.696000000    -4.533000000     1.625000000
O    -2.052000000    -2.452000000     6.763000000
H    -1.601000000    -2.614000000     5.934000000
H    -2.972000000    -2.354000000     6.520000000
O    -1.177000000    -1.943000000    -2.877000000
H    -1.025000000    -1.778000000    -3.808000000
H    -0.549000000    -1.378000000    -2.428000000
O     3.744000000     4.622000000    -1.634000000
H     3.985000000     5.493000000    -1.950000000
H     3.010000000     4.777000000    -1.040000000
O    -3.285000000     1.098000000     4.704000000
H    -3.827000000     0.315000000     4.605000000
H    -3.884000000     1.826000000     4.538000000
O     2.087000000    -2.222000000    -1.880000000
H     2.254000000    -1.299000000    -1.692000000
H     1.937000000    -2.618000000    -1.022000000
O    -5.802000000    -0.302000000     3.742000000
H    -5.644000000    -0.182000000     2.806000000
H    -6.729000000    -0.090000000     3.857000000
O    -7.635000000    -0.969000000    -0.134000000
H    -6.993000000    -0.261000000    -0.076000000
H    -8.263000000    -0.780000000     0.564000000
O    -0.580000000    -7.025000000     2.158000000
H    -0.920000000    -6.285000000     1.655000000
H    -1.126000000    -7.053000000     2.943000000
O     4.974000000     2.313000000     0.347000000
H     4.554000000     3.027000000    -0.134000000
H     5.878000000     2.606000000     0.469000000
O    -1.226000000     4.641000000    -6.302000000
H    -1.929000000     4.338000000    -6.876000000
H    -1.159000000     3.965000000    -5.628000000
O     3.227000000     0.855000000    -3.949000000
H     2.292000000     0.659000000    -4.000000000
H     3.656000000     0.008000000    -4.074000000
O     5.341000000    -2.647000000     4.191000000
H     5.197000000    -3.561000000     4.437000000
H     4.505000000    -2.365000000     3.820000000
O    -6.817000000     1.479000000    -1.875000000
H    -7.663000000     1.373000000    -2.309000000
H    -6.174000000     1.236000000    -2.541000000
O     1.668000000     1.141000000    -6.321000000
H     0.878000000     1.066000000    -5.786000000
H     2.340000000     0.678000000    -5.821000000
O     3.690000000    -2.020000000    -4.681000000
H     2.805000000    -2.302000000    -4.911000000
H     4.264000000    -2.616000000    -5.163000000
O     3.626000000    -0.231000000     6.223000000
H     2.828000000    -0.469000000     5.750000000
H     4.337000000    -0.468000000     5.628000000
O    -4.881000000     2.520000000    -0.227000000
H    -5.327000000     2.752000000     0.588000000
H    -5.588000000     2.390000000    -0.859000000
O     2.896000000     5.752000000     2.834000000
H     3.587000000     5.184000000     3.174000000
H     2.115000000     5.199000000     2.821000000
O    -3.243000000    -7.053000000     2.171000000
H    -3.104000000    -6.389000000     2.846000000
H    -4.192000000    -7.173000000     2.146000000
O    -3.703000000    -5.756000000    -1.147000000
H    -3.639000000    -5.138000000    -1.876000000
H    -3.139000000    -6.486000000    -1.402000000
O     5.908000000    -2.359000000    -1.274000000
H     5.202000000    -2.548000000    -0.656000000
H     5.729000000    -1.469000000    -1.577000000
O    -6.039000000    -2.943000000     1.394000000
H    -5.130000000    -2.667000000     1.276000000
H    -6.557000000    -2.218000000     1.044000000
O    -2.207000000     4.508000000    -0.757000000
H    -2.661000000     4.784000000    -1.554000000
H    -2.848000000     3.971000000    -0.291000000
O     3.922000000     3.477000000    -4.099000000
H     3.648000000     2.562000000    -4.165000000
H     3.495000000     3.797000000    -3.304000000
O     7.068000000    -0.324000000     0.944000000
H     7.066000000     0.633000000     0.903000000
H     6.272000000    -0.586000000     0.481000000
O     0.008000000     5.709000000     0.414000000
H     0.376000000     5.048000000     1.000000000
H    -0.813000000     5.325000000     0.105000000
O    -2.160000000     2.924000000    -4.297000000
H    -2.694000000     3.406000000    -3.665000000
H    -2.789000000     2.398000000    -4.790000000
O    -0.780000000    -3.103000000     4.408000000
H    -0.265000000    -3.879000000     4.190000000
H    -1.156000000    -2.822000000     3.574000000
O     0.411000000     3.476000000     2.024000000
H    -0.285000000     2.846000000     1.836000000
H     0.289000000     3.698000000     2.947000000
O     5.273000000     0.090000000    -1.442000000
H     6.006000000     0.498000000    -1.904000000
H     4.864000000     0.809000000    -0.960000000
O     3.565000000     1.049000000     2.980000000
H     3.476000000     1.972000000     3.217000000
H     4.271000000     1.035000000     2.334000000
O    -5.125000000     0.076000000    -3.482000000
H    -4.785000000    -0.585000000    -2.878000000
H    -5.644000000    -0.422000000    -4.114000000
O    -3.661000000    -1.898000000    -1.835000000
H    -3.509000000    -2.194000000    -0.938000000
H    -2.801000000    -1.948000000    -2.252000000
O    -1.228000000    -4.746000000    -2.171000000
H    -1.343000000    -3.824000000    -2.402000000
H    -1.266000000    -4.759000000    -1.215000000
O     2.674000000    -1.632000000     3.464000000
H     1.820000000    -1.432000000     3.849000000
H     3.006000000    -0.786000000     3.164000000
O     4.113000000    -2.903000000     0.874000000
H     4.245000000    -3.782000000     1.229000000
H     3.623000000    -2.441000000     1.554000000
O    -4.651000000    -1.721000000     5.814000000
H    -5.223000000    -1.382000000     6.502000000
H    -4.976000000    -1.315000000     5.011000000
O    -3.372000000    -5.152000000     4.368000000
H    -2.578000000    -4.623000000     4.296000000
H    -3.149000000    -5.834000000     5.002000000
O     0.049000000     0.810000000    -4.317000000
H    -0.601000000     1.505000000    -4.213000000
H    -0.413000000     0.118000000    -4.789000000
O     0.715000000    -0.965000000     4.926000000
H     0.191000000    -1.759000000     4.818000000
H     0.082000000    -0.292000000     5.175000000
O    -1.695000000    -5.043000000     0.451000000
H    -1.866000000    -4.239000000     0.941000000
H    -2.546000000    -5.290000000     0.091000000
O    -0.625000000    -5.942000000     5.289000000
H     0.166000000    -5.633000000     5.730000000
H    -1.170000000    -6.292000000     5.994000000
