161
-3044.39603
C     0.342000000     1.410000000     0.140000000
H     0.473000000     2.489000000     0.128000000
C     0.186000000     0.726000000    -1.104000000
H     0.278000000     1.323000000    -2.008000000
C    -0.201000000    -0.641000000    -1.071000000
C    -0.533000000    -1.262000000    -2.351000000
H    -1.329000000    -0.655000000    -2.786000000
H     0.286000000    -1.275000000    -3.073000000
H    -0.870000000    -2.296000000    -2.247000000
C    -0.269000000    -1.250000000     0.102000000
H    -0.505000000    -2.308000000     0.026000000
C     0.018000000    -0.603000000     1.310000000
H    -0.016000000    -1.146000000     2.251000000
C     0.364000000     0.733000000     1.372000000
C     0.603000000     1.419000000     2.727000000
O     0.686000000     0.727000000     3.702000000
O     0.480000000     2.606000000     2.884000000
O    -2.317000000     2.911000000    -1.837000000
H    -2.005000000     3.713000000    -1.419000000
H    -2.155000000     2.224000000    -1.190000000
O    -4.146000000    -4.346000000    -4.095000000
H    -4.014000000    -5.079000000    -3.493000000
H    -4.821000000    -4.652000000    -4.701000000
O    -2.743000000     0.789000000    -0.144000000
H    -1.820000000     0.547000000    -0.223000000
H    -3.074000000     0.240000000     0.567000000
O     1.215000000    -5.868000000    -1.651000000
H     1.411000000    -6.020000000    -0.726000000
H     1.691000000    -5.066000000    -1.868000000
O    -5.230000000     0.795000000    -5.591000000
H    -5.325000000    -0.046000000    -5.143000000
H    -6.109000000     0.995000000    -5.913000000
O    -3.146000000    -1.135000000    -6.236000000
H    -3.560000000    -1.360000000    -5.402000000
H    -3.731000000    -0.486000000    -6.626000000
O     0.410000000     3.750000000     7.121000000
H     1.172000000     3.921000000     7.673000000
H     0.754000000     3.756000000     6.228000000
O    -1.827000000    -4.660000000    -5.310000000
H    -2.599000000    -4.224000000    -4.949000000
H    -1.516000000    -5.223000000    -4.601000000
O     2.710000000    -3.430000000    -2.503000000
H     2.863000000    -2.579000000    -2.092000000
H     2.621000000    -3.233000000    -3.436000000
O    -4.285000000    -1.300000000     4.630000000
H    -3.494000000    -1.596000000     5.079000000
H    -4.838000000    -0.947000000     5.327000000
O    -2.272000000    -4.947000000     0.418000000
H    -2.955000000    -5.104000000     1.070000000
H    -1.942000000    -5.819000000     0.202000000
O     3.703000000     6.146000000     2.829000000
H     4.397000000     6.482000000     2.263000000
H     3.066000000     5.763000000     2.226000000
O    -4.201000000    -6.126000000    -1.988000000
H    -4.058000000    -7.054000000    -1.803000000
H    -3.781000000    -5.670000000    -1.258000000
O    -1.116000000     6.089000000     0.068000000
H    -0.954000000     6.437000000     0.945000000
H    -0.345000000     5.553000000    -0.123000000
O    -1.680000000     5.424000000    -5.238000000
H    -1.295000000     4.625000000    -4.877000000
H    -2.619000000     5.330000000    -5.080000000
O     3.267000000     1.267000000    -2.692000000
H     4.097000000     1.658000000    -2.418000000
H     3.034000000     1.737000000    -3.493000000
O     0.316000000     0.873000000     6.211000000
H     0.247000000     1.816000000     6.364000000
H     0.466000000     0.794000000     5.269000000
O    -0.699000000    -6.554000000    -3.487000000
H    -1.340000000    -6.919000000    -2.877000000
H    -0.018000000    -6.183000000    -2.925000000
O    -0.998000000     0.765000000    -6.237000000
H    -0.079000000     0.687000000    -6.495000000
H    -1.306000000    -0.139000000    -6.174000000
O    -1.100000000     2.829000000    -4.387000000
H    -1.208000000     2.006000000    -4.863000000
H    -1.776000000     2.804000000    -3.710000000
O     1.043000000    -4.138000000    -6.026000000
H     0.910000000    -5.075000000    -5.884000000
H     0.206000000    -3.739000000    -5.791000000
O     2.623000000    -2.168000000     1.962000000
H     3.008000000    -1.360000000     1.624000000
H     2.565000000    -2.030000000     2.907000000
O     2.418000000     5.058000000    -0.833000000
H     2.382000000     5.974000000    -1.109000000
H     1.934000000     4.585000000    -1.509000000
O    -2.190000000     5.844000000     5.363000000
H    -2.564000000     5.230000000     4.732000000
H    -1.330000000     6.062000000     5.005000000
O     2.061000000     3.413000000     4.952000000
H     1.981000000     4.292000000     4.582000000
H     1.523000000     2.864000000     4.381000000
O     3.130000000    -1.266000000     7.547000000
H     2.217000000    -1.187000000     7.824000000
H     3.499000000    -0.394000000     7.687000000
O     2.807000000    -1.953000000    -6.919000000
H     2.110000000    -1.298000000    -6.916000000
H     2.357000000    -2.782000000    -6.756000000
O    -3.107000000    -0.769000000     1.985000000
H    -3.425000000    -1.403000000     1.342000000
H    -3.491000000    -1.056000000     2.814000000
O     0.277000000    -3.314000000     6.157000000
H     0.552000000    -2.712000000     5.465000000
H    -0.649000000    -3.115000000     6.294000000
O     2.812000000    -4.743000000     1.478000000
H     2.350000000    -3.916000000     1.339000000
H     3.450000000    -4.548000000     2.165000000
O    -3.058000000     2.272000000    -7.174000000
H    -3.899000000     2.051000000    -6.774000000
H    -2.422000000     1.723000000    -6.715000000
O     2.864000000     3.105000000    -4.973000000
H     3.752000000     3.176000000    -5.323000000
H     2.346000000     3.706000000    -5.509000000
O     5.148000000     0.163000000     4.358000000
H     4.838000000     0.160000000     3.453000000
H     5.622000000    -0.663000000     4.452000000
O    -2.683000000     4.072000000     3.124000000
H    -3.141000000     3.711000000     2.366000000
H    -1.766000000     3.835000000     2.985000000
O    -2.869000000     0.169000000     6.912000000
H    -2.426000000     0.911000000     7.323000000
H    -2.182000000    -0.277000000     6.417000000
O    -4.547000000    -0.110000000    -2.311000000
H    -5.123000000    -0.209000000    -1.553000000
H    -3.817000000     0.419000000    -1.990000000
O    -1.481000000    -1.079000000     4.573000000
H    -1.748000000    -0.357000000     4.004000000
H    -0.625000000    -1.345000000     4.237000000
O    -3.210000000    -2.552000000    -0.404000000
H    -2.827000000    -2.403000000    -1.268000000
H    -2.767000000    -3.336000000    -0.079000000
O    -5.927000000    -3.425000000    -1.259000000
H    -4.978000000    -3.372000000    -1.146000000
H    -6.220000000    -4.003000000    -0.554000000
O    -3.973000000     2.809000000     0.995000000
H    -4.321000000     3.524000000     0.463000000
H    -3.692000000     2.151000000     0.359000000
O     4.967000000    -0.549000000     1.591000000
H     5.923000000    -0.561000000     1.557000000
H     4.698000000    -0.327000000     0.700000000
O     0.986000000     3.711000000    -2.789000000
H     1.683000000     3.741000000    -3.445000000
H     0.219000000     3.396000000    -3.268000000
O     1.922000000    -1.488000000     4.792000000
H     2.526000000    -1.356000000     5.523000000
H     1.588000000    -0.612000000     4.596000000
O     1.406000000     5.055000000     1.578000000
H     1.950000000     4.917000000     0.803000000
H     1.257000000     4.175000000     1.925000000
O     4.339000000     1.782000000     6.485000000
H     3.527000000     2.157000000     6.142000000
H     4.705000000     1.292000000     5.749000000
O     1.858000000     0.818000000    -6.633000000
H     2.408000000     0.917000000    -5.856000000
H     1.974000000     1.638000000    -7.114000000
O     3.388000000    -1.047000000    -1.146000000
H     3.131000000    -0.317000000    -1.709000000
H     2.963000000    -0.865000000    -0.308000000
O    -4.999000000    -1.791000000    -4.426000000
H    -4.773000000    -1.335000000    -3.616000000
H    -5.102000000    -2.706000000    -4.166000000
