161
-3038.77451
C     0.748000000     0.757000000     0.994000000
H     1.302000000     1.206000000     1.815000000
C     0.698000000    -0.596000000     0.844000000
H     1.253000000    -1.130000000     1.610000000
C    -0.047000000    -1.253000000    -0.163000000
C    -0.116000000    -2.745000000    -0.157000000
H    -0.457000000    -3.069000000     0.829000000
H    -0.731000000    -3.172000000    -0.952000000
H     0.883000000    -3.187000000    -0.190000000
C    -0.735000000    -0.455000000    -1.100000000
H    -1.249000000    -0.894000000    -1.952000000
C    -0.661000000     0.940000000    -0.956000000
H    -1.198000000     1.544000000    -1.684000000
C     0.124000000     1.574000000     0.023000000
C     0.060000000     3.076000000     0.292000000
O    -0.593000000     3.834000000    -0.412000000
O     0.723000000     3.568000000     1.158000000
O     4.756000000     0.093000000     0.209000000
H     4.779000000     1.030000000     0.014000000
H     4.063000000    -0.252000000    -0.353000000
O     3.701000000    -5.202000000    -2.750000000
H     3.964000000    -4.284000000    -2.819000000
H     2.756000000    -5.170000000    -2.603000000
O     2.863000000     4.959000000     1.508000000
H     3.210000000     5.712000000     1.029000000
H     1.926000000     4.963000000     1.312000000
O    -0.185000000     4.213000000    -3.762000000
H     0.156000000     5.090000000    -3.581000000
H     0.183000000     3.985000000    -4.616000000
O     1.641000000    -1.899000000    -3.439000000
H     2.174000000    -2.349000000    -4.095000000
H     1.408000000    -2.583000000    -2.811000000
O     4.849000000    -2.812000000    -1.420000000
H     5.193000000    -2.372000000    -2.197000000
H     4.979000000    -2.181000000    -0.711000000
O    -0.984000000    -4.380000000     3.669000000
H    -1.737000000    -3.899000000     3.324000000
H    -0.910000000    -5.148000000     3.103000000
O    -2.980000000    -3.252000000     2.328000000
H    -3.776000000    -3.312000000     1.799000000
H    -2.559000000    -2.444000000     2.035000000
O    -0.692000000     6.771000000     5.386000000
H    -1.522000000     6.401000000     5.687000000
H    -0.684000000     6.606000000     4.443000000
O     4.176000000    -2.954000000     4.239000000
H     4.133000000    -3.770000000     4.737000000
H     3.325000000    -2.894000000     3.804000000
O    -2.484000000     6.724000000     2.139000000
H    -1.795000000     6.065000000     2.222000000
H    -3.297000000     6.220000000     2.112000000
O     2.320000000     5.874000000     4.356000000
H     1.557000000     6.190000000     3.871000000
H     2.364000000     4.940000000     4.152000000
O     0.164000000    -6.288000000    -4.559000000
H     0.118000000    -6.704000000    -5.420000000
H    -0.725000000    -6.360000000    -4.211000000
O    -0.715000000    -0.764000000    -4.664000000
H    -1.422000000    -1.409000000    -4.679000000
H     0.042000000    -1.245000000    -4.329000000
O    -2.735000000     3.060000000     1.250000000
H    -2.018000000     3.608000000     0.931000000
H    -3.117000000     3.560000000     1.970000000
O    -0.824000000     4.832000000     3.049000000
H    -0.317000000     4.326000000     2.414000000
H    -0.845000000     4.282000000     3.832000000
O     0.572000000     6.366000000    -0.161000000
H     0.195000000     5.502000000     0.004000000
H     0.699000000     6.395000000    -1.110000000
O     1.347000000    -2.775000000     4.134000000
H     0.422000000    -3.014000000     4.194000000
H     1.387000000    -1.883000000     4.480000000
O     3.873000000     2.631000000    -0.163000000
H     3.417000000     3.326000000     0.311000000
H     3.589000000     2.734000000    -1.071000000
O    -3.336000000    -0.726000000     0.825000000
H    -4.074000000    -1.246000000     0.507000000
H    -2.888000000    -0.436000000     0.031000000
O    -2.136000000     0.789000000     2.761000000
H    -2.276000000     1.649000000     2.365000000
H    -2.474000000     0.170000000     2.114000000
O     0.993000000     6.682000000    -3.064000000
H     0.379000000     7.416000000    -3.097000000
H     1.691000000     6.927000000    -3.672000000
O    -0.026000000     1.534000000     4.101000000
H    -0.405000000     1.941000000     4.880000000
H    -0.781000000     1.233000000     3.596000000
O     5.964000000     4.290000000     0.147000000
H     6.560000000     3.748000000    -0.371000000
H     5.180000000     3.750000000     0.253000000
O    -2.525000000     8.024000000    -0.519000000
H    -2.245000000     7.527000000     0.249000000
H    -2.693000000     7.359000000    -1.187000000
O     1.191000000    -5.965000000    -0.487000000
H     1.976000000    -5.642000000    -0.044000000
H     0.562000000    -6.115000000     0.218000000
O     1.690000000     1.983000000    -2.724000000
H     1.472000000     2.890000000    -2.511000000
H     0.919000000     1.482000000    -2.459000000
O     0.507000000     0.697000000    -6.748000000
H    -0.020000000     0.202000000    -6.121000000
H     0.366000000     0.253000000    -7.584000000
O    -4.130000000     0.179000000    -3.613000000
H    -4.111000000     0.711000000    -2.816000000
H    -4.695000000     0.666000000    -4.212000000
O     1.136000000     8.139000000     1.908000000
H     0.789000000     7.635000000     1.172000000
H     1.983000000     8.462000000     1.600000000
O    -2.361000000    -6.868000000    -3.891000000
H    -2.870000000    -7.604000000    -4.230000000
H    -2.903000000    -6.504000000    -3.191000000
O    -3.242000000     6.363000000    -2.680000000
H    -2.802000000     5.569000000    -2.380000000
H    -3.084000000     6.382000000    -3.624000000
O     0.462000000    -7.935000000    -2.226000000
H     0.943000000    -7.372000000    -1.620000000
H     0.422000000    -7.432000000    -3.039000000
O     2.960000000     4.670000000    -2.231000000
H     2.201000000     5.229000000    -2.394000000
H     3.553000000     4.853000000    -2.960000000
O    -1.012000000    -6.612000000     1.688000000
H    -1.823000000    -6.695000000     1.186000000
H    -1.138000000    -7.187000000     2.443000000
O    -4.578000000    -3.692000000    -2.218000000
H    -4.907000000    -4.586000000    -2.308000000
H    -4.096000000    -3.531000000    -3.029000000
O     2.198000000    -5.412000000     3.122000000
H     1.943000000    -4.589000000     2.705000000
H     1.649000000    -5.464000000     3.904000000
O     3.424000000    -4.648000000     0.511000000
H     3.238000000    -3.757000000     0.214000000
H     4.355000000    -4.639000000     0.731000000
O    -3.244000000    -2.479000000    -4.542000000
H    -3.549000000    -1.607000000    -4.291000000
H    -3.318000000    -2.492000000    -5.497000000
O     4.656000000     3.275000000     4.925000000
H     3.961000000     2.777000000     4.495000000
H     4.426000000     3.254000000     5.854000000
O     4.713000000     0.070000000     3.432000000
H     4.619000000    -0.168000000     2.509000000
H     4.492000000     1.001000000     3.462000000
O    -4.278000000    -5.485000000     3.635000000
H    -3.855000000    -4.732000000     3.221000000
H    -3.564000000    -6.103000000     3.794000000
O     3.465000000    -0.094000000    -2.281000000
H     2.895000000    -0.791000000    -2.604000000
H     2.885000000     0.660000000    -2.173000000
O     2.321000000     3.043000000     3.455000000
H     1.435000000     2.688000000     3.522000000
H     2.340000000     3.478000000     2.603000000
O    -2.382000000     3.782000000    -2.136000000
H    -1.783000000     3.804000000    -2.882000000
H    -1.820000000     3.913000000    -1.373000000
O     0.653000000    -0.810000000     5.924000000
H     0.796000000    -0.311000000     5.119000000
H    -0.291000000    -0.967000000     5.944000000
O     1.139000000    -4.702000000    -2.798000000
H     0.747000000    -5.350000000    -3.385000000
H     0.916000000    -5.010000000    -1.919000000
O    -4.037000000     1.768000000    -1.029000000
H    -3.417000000     2.410000000    -1.374000000
H    -3.880000000     1.767000000    -0.085000000
