161
-3091.48874
C    -0.771000000     1.263000000    -0.168000000
H    -1.264000000     2.174000000    -0.497000000
C     0.163000000     0.758000000    -1.095000000
H     0.427000000     1.264000000    -2.020000000
C     0.757000000    -0.513000000    -0.849000000
C     1.720000000    -1.116000000    -1.811000000
H     1.964000000    -2.158000000    -1.595000000
H     1.290000000    -1.040000000    -2.812000000
H     2.673000000    -0.594000000    -1.707000000
C     0.526000000    -1.155000000     0.338000000
H     1.033000000    -2.074000000     0.622000000
C    -0.381000000    -0.582000000     1.285000000
H    -0.380000000    -1.037000000     2.272000000
C    -1.007000000     0.633000000     1.084000000
C    -2.044000000     1.220000000     2.034000000
O    -2.176000000     0.614000000     3.112000000
O    -2.524000000     2.347000000     1.812000000
O    -2.547000000    -0.062000000    -2.848000000
H    -2.977000000     0.785000000    -2.963000000
H    -3.131000000    -0.688000000    -3.275000000
O     0.532000000     3.420000000    -3.498000000
H     1.312000000     3.975000000    -3.504000000
H    -0.200000000     4.034000000    -3.546000000
O    -4.319000000     4.079000000     2.684000000
H    -3.677000000     3.397000000     2.488000000
H    -4.249000000     4.209000000     3.630000000
O     4.478000000    -6.087000000    -3.528000000
H     5.325000000    -6.051000000    -3.973000000
H     4.602000000    -5.565000000    -2.736000000
O    -6.014000000     1.014000000     1.165000000
H    -5.791000000     0.087000000     1.078000000
H    -6.655000000     1.171000000     0.471000000
O     4.599000000     1.559000000     0.322000000
H     4.470000000     1.095000000    -0.505000000
H     3.768000000     1.457000000     0.786000000
O    -2.182000000    -4.714000000     0.524000000
H    -1.626000000    -5.113000000    -0.145000000
H    -3.043000000    -4.646000000     0.110000000
O    -6.978000000     3.183000000     2.182000000
H    -6.303000000     3.794000000     2.476000000
H    -6.515000000     2.355000000     2.056000000
O    -0.151000000     2.026000000     7.491000000
H    -0.476000000     1.473000000     8.202000000
H    -0.505000000     1.626000000     6.697000000
O     1.952000000    -5.044000000    -4.030000000
H     2.143000000    -4.137000000    -4.271000000
H     2.750000000    -5.523000000    -4.252000000
O     5.726000000    -5.340000000    -1.094000000
H     6.223000000    -5.211000000    -0.286000000
H     5.030000000    -4.684000000    -1.054000000
O     2.411000000    -1.130000000    -7.798000000
H     2.015000000    -0.774000000    -7.002000000
H     2.166000000    -0.509000000    -8.485000000
O    -1.507000000     5.304000000    -2.153000000
H    -1.771000000     5.321000000    -1.233000000
H    -0.975000000     6.093000000    -2.264000000
O    -2.994000000     2.630000000    -2.707000000
H    -3.537000000     2.554000000    -1.922000000
H    -2.402000000     3.358000000    -2.519000000
O     4.557000000    -3.043000000    -2.478000000
H     3.994000000    -2.847000000    -3.227000000
H     3.955000000    -3.115000000    -1.737000000
O     2.018000000    -0.581000000     3.240000000
H     1.716000000     0.136000000     3.798000000
H     1.706000000    -1.373000000     3.678000000
O    -0.672000000     1.092000000    -4.928000000
H    -1.240000000     0.652000000    -4.296000000
H    -0.342000000     1.859000000    -4.459000000
O     7.127000000    -2.414000000    -2.120000000
H     7.101000000    -2.759000000    -1.228000000
H     6.254000000    -2.592000000    -2.471000000
O     0.259000000    -4.220000000    -6.205000000
H     0.549000000    -4.898000000    -5.596000000
H     0.816000000    -3.467000000    -6.008000000
O     4.044000000    -1.802000000     1.853000000
H     3.338000000    -1.350000000     2.315000000
H     4.634000000    -2.096000000     2.547000000
O     1.337000000     3.837000000    -0.056000000
H     0.398000000     3.820000000     0.131000000
H     1.685000000     3.067000000     0.392000000
O    -5.142000000     6.120000000     0.777000000
H    -4.719000000     6.851000000     1.229000000
H    -4.726000000     5.340000000     1.142000000
O    -0.527000000     0.695000000     5.260000000
H     0.285000000     1.090000000     4.944000000
H    -1.110000000     0.706000000     4.501000000
O     1.043000000    -2.723000000     4.802000000
H     0.920000000    -2.585000000     5.741000000
H     0.243000000    -3.166000000     4.519000000
O     3.589000000    -3.362000000     4.715000000
H     2.681000000    -3.103000000     4.555000000
H     3.532000000    -4.281000000     4.977000000
O    -1.829000000    -2.298000000     5.067000000
H    -2.579000000    -2.182000000     4.483000000
H    -1.233000000    -1.586000000     4.836000000
O    -1.762000000     4.582000000     0.466000000
H    -1.627000000     5.201000000     1.184000000
H    -1.934000000     3.746000000     0.899000000
O    -5.964000000    -0.664000000     3.896000000
H    -5.131000000    -1.011000000     3.576000000
H    -5.716000000    -0.008000000     4.547000000
O     5.119000000    -0.777000000    -4.841000000
H     5.912000000    -0.646000000    -5.361000000
H     4.460000000    -0.231000000    -5.270000000
O     2.853000000     1.613000000    -3.460000000
H     2.376000000     2.401000000    -3.197000000
H     3.774000000     1.834000000    -3.324000000
O     5.408000000     0.060000000    -2.392000000
H     6.012000000    -0.597000000    -2.047000000
H     5.182000000    -0.258000000    -3.267000000
O    -6.345000000     1.485000000     6.090000000
H    -6.481000000     1.756000000     6.998000000
H    -5.393000000     1.458000000     5.988000000
O    -4.423000000     2.746000000    -0.161000000
H    -3.809000000     2.814000000     0.570000000
H    -5.063000000     2.093000000     0.122000000
O    -3.774000000     0.834000000     5.410000000
H    -3.432000000     0.625000000     6.280000000
H    -3.016000000     0.758000000     4.830000000
O     2.016000000     1.455000000     1.276000000
H     1.680000000     0.877000000     0.590000000
H     1.831000000     0.991000000     2.092000000
O     1.722000000     1.871000000     4.800000000
H     2.120000000     1.701000000     5.654000000
H     2.303000000     2.511000000     4.388000000
O    -3.590000000    -1.661000000     2.762000000
H    -3.586000000    -1.792000000     1.814000000
H    -3.149000000    -0.821000000     2.890000000
O    -3.600000000    -1.337000000    -0.283000000
H    -4.113000000    -0.688000000    -0.765000000
H    -2.741000000    -1.325000000    -0.706000000
O     6.615000000    -1.744000000     0.675000000
H     7.030000000    -2.113000000     1.454000000
H     5.781000000    -1.394000000     0.990000000
O     3.560000000    -3.805000000    -0.134000000
H     2.690000000    -4.156000000     0.058000000
H     3.637000000    -3.036000000     0.431000000
O     2.932000000     4.402000000    -2.285000000
H     2.489000000     3.931000000    -1.579000000
H     3.827000000     4.523000000    -1.967000000
O    -0.808000000    -4.128000000     2.826000000
H    -0.018000000    -4.148000000     2.286000000
H    -1.509000000    -4.407000000     2.236000000
O     1.677000000    -0.004000000    -5.401000000
H     2.044000000     0.587000000    -4.744000000
H     0.733000000     0.023000000    -5.247000000
O    -1.537000000     4.381000000     4.315000000
H    -0.768000000     4.731000000     3.865000000
H    -1.532000000     3.447000000     4.106000000
O     2.842000000    -2.563000000    -4.777000000
H     2.511000000    -1.689000000    -4.986000000
H     3.735000000    -2.570000000    -5.122000000
O     0.406000000    -5.414000000    -1.566000000
H     0.886000000    -5.005000000    -2.286000000
H    -0.496000000    -5.471000000    -1.880000000
O    -1.488000000    -0.645000000    -6.784000000
H    -1.438000000    -0.029000000    -6.052000000
H    -1.317000000    -0.110000000    -7.559000000
O     1.383000000    -4.909000000     0.936000000
H     0.925000000    -5.217000000     0.154000000
H     1.777000000    -5.698000000     1.308000000
