161
-3055.75858
C     0.534000000     1.007000000     0.914000000
H     0.976000000     1.758000000     1.564000000
C     1.014000000     0.732000000    -0.370000000
H     1.853000000     1.254000000    -0.822000000
C     0.461000000    -0.272000000    -1.099000000
C     0.956000000    -0.511000000    -2.500000000
H     1.790000000     0.165000000    -2.699000000
H     1.210000000    -1.552000000    -2.711000000
H     0.182000000    -0.188000000    -3.200000000
C    -0.651000000    -0.963000000    -0.619000000
H    -1.196000000    -1.653000000    -1.258000000
C    -1.161000000    -0.737000000     0.644000000
H    -2.016000000    -1.316000000     0.985000000
C    -0.512000000     0.244000000     1.459000000
C    -1.040000000     0.649000000     2.836000000
O    -1.793000000    -0.155000000     3.365000000
O    -0.614000000     1.537000000     3.515000000
O     1.370000000     4.158000000    -4.046000000
H     0.844000000     3.363000000    -4.128000000
H     0.738000000     4.844000000    -3.830000000
O    -1.016000000     4.802000000     7.387000000
H    -0.996000000     4.286000000     6.581000000
H    -0.115000000     5.101000000     7.503000000
O     1.310000000    -2.779000000    -5.621000000
H     1.450000000    -3.573000000    -6.137000000
H     1.767000000    -2.094000000    -6.109000000
O    -4.356000000     0.139000000     2.672000000
H    -4.892000000    -0.606000000     2.943000000
H    -3.454000000    -0.153000000     2.804000000
O    -2.529000000     2.169000000     8.100000000
H    -2.837000000     1.523000000     7.464000000
H    -1.667000000     2.431000000     7.776000000
O    -4.569000000    -3.234000000    -3.749000000
H    -3.856000000    -3.803000000    -4.039000000
H    -4.180000000    -2.698000000    -3.058000000
O    -1.619000000     2.232000000    -1.643000000
H    -0.861000000     1.942000000    -1.137000000
H    -2.265000000     2.486000000    -0.983000000
O     3.153000000    -5.632000000    -3.471000000
H     2.296000000    -5.386000000    -3.121000000
H     3.702000000    -4.863000000    -3.321000000
O    -0.937000000     2.635000000    -4.117000000
H    -1.142000000     2.101000000    -3.349000000
H    -1.727000000     2.595000000    -4.655000000
O    -0.635000000    -4.948000000    -3.110000000
H     0.049000000    -4.907000000    -2.442000000
H    -0.929000000    -5.859000000    -3.096000000
O    -3.666000000    -1.362000000    -1.656000000
H    -3.846000000    -1.916000000    -0.896000000
H    -4.023000000    -0.506000000    -1.418000000
O     6.214000000    -1.152000000    -3.396000000
H     6.759000000    -1.508000000    -4.098000000
H     5.872000000    -0.331000000    -3.751000000
O    -6.410000000     2.201000000     2.577000000
H    -5.975000000     1.356000000     2.460000000
H    -5.713000000     2.792000000     2.861000000
O    -0.034000000    -3.695000000     1.101000000
H     0.527000000    -4.148000000     1.730000000
H    -0.018000000    -2.780000000     1.382000000
O     1.828000000     2.298000000     4.254000000
H     0.897000000     2.223000000     4.045000000
H     2.124000000     3.061000000     3.758000000
O    -2.108000000    -4.665000000    -0.241000000
H    -1.840000000    -4.820000000    -1.147000000
H    -1.315000000    -4.349000000     0.192000000
O     2.237000000     4.164000000     2.429000000
H     2.436000000     5.094000000     2.538000000
H     1.777000000     4.114000000     1.591000000
O     1.692000000    -2.508000000     3.344000000
H     1.865000000    -1.706000000     3.836000000
H     2.560000000    -2.849000000     3.128000000
O     5.142000000     1.917000000    -2.125000000
H     5.121000000     2.041000000    -3.074000000
H     5.301000000     2.792000000    -1.772000000
O    -2.952000000     0.371000000     5.552000000
H    -3.038000000    -0.418000000     6.087000000
H    -2.557000000     0.065000000     4.736000000
O     1.164000000    -4.711000000    -1.294000000
H     1.062000000    -4.681000000    -0.343000000
H     1.867000000    -4.088000000    -1.479000000
O     1.110000000     1.108000000    -5.797000000
H     0.500000000     1.456000000    -5.148000000
H     0.558000000     0.873000000    -6.543000000
O     4.127000000    -2.977000000    -3.922000000
H     3.561000000    -2.702000000    -4.643000000
H     4.798000000    -2.297000000    -3.871000000
O     4.195000000    -0.300000000    -0.419000000
H     3.557000000     0.320000000    -0.067000000
H     4.597000000     0.161000000    -1.155000000
O     0.011000000     0.185000000     5.805000000
H     0.252000000     0.674000000     5.018000000
H    -0.890000000    -0.096000000     5.646000000
O    -3.569000000     2.051000000     0.406000000
H    -3.255000000     1.485000000     1.111000000
H    -4.314000000     1.579000000     0.033000000
O    -2.767000000    -2.697000000    -6.674000000
H    -2.369000000    -2.684000000    -5.804000000
H    -3.477000000    -3.335000000    -6.603000000
O     1.429000000    -1.742000000     7.333000000
H     0.977000000    -1.079000000     6.812000000
H     1.877000000    -2.289000000     6.687000000
O     3.744000000    -3.622000000     1.574000000
H     3.560000000    -3.094000000     0.797000000
H     3.746000000    -4.525000000     1.255000000
O    -0.878000000    -2.551000000     4.200000000
H     0.054000000    -2.731000000     4.081000000
H    -1.049000000    -1.793000000     3.641000000
O     4.787000000     0.031000000     2.250000000
H     4.734000000     0.976000000     2.391000000
H     4.897000000    -0.065000000     1.304000000
O    -1.658000000     3.595000000     4.656000000
H    -1.436000000     4.334000000     4.090000000
H    -1.347000000     2.825000000     4.180000000
O     1.053000000     1.768000000     7.652000000
H     0.639000000     1.261000000     6.954000000
H     1.963000000     1.864000000     7.371000000
O    -3.056000000    -0.099000000    -4.053000000
H    -3.391000000    -0.582000000    -3.297000000
H    -2.523000000    -0.737000000    -4.528000000
O    -4.053000000     2.849000000     5.272000000
H    -3.985000000     1.898000000     5.355000000
H    -3.181000000     3.128000000     4.991000000
O    -6.740000000    -2.388000000    -0.241000000
H    -7.350000000    -2.234000000     0.481000000
H    -5.905000000    -2.575000000     0.187000000
O    -4.294000000    -3.344000000     0.444000000
H    -3.500000000    -3.809000000     0.181000000
H    -4.559000000    -3.764000000     1.262000000
O    -2.684000000     4.727000000     0.340000000
H    -3.178000000     3.915000000     0.454000000
H    -3.047000000     5.321000000     0.997000000
O     4.747000000     2.634000000     1.847000000
H     4.016000000     2.902000000     2.404000000
H     5.374000000     3.355000000     1.911000000
O    -2.580000000    -2.310000000     6.359000000
H    -2.113000000    -2.355000000     5.525000000
H    -2.909000000    -3.199000000     6.497000000
O    -5.591000000     0.420000000    -0.737000000
H    -5.683000000    -0.510000000    -0.530000000
H    -6.227000000     0.574000000    -1.435000000
O    -3.293000000    -4.028000000     3.521000000
H    -2.392000000    -3.705000000     3.496000000
H    -3.442000000    -4.251000000     4.440000000
O     0.468000000     4.896000000     0.459000000
H    -0.466000000     5.069000000     0.336000000
H     0.891000000     5.329000000    -0.282000000
O     3.766000000     3.865000000     5.714000000
H     3.018000000     3.376000000     5.371000000
H     4.170000000     4.258000000     4.940000000
O    -4.340000000     2.385000000    -3.446000000
H    -3.806000000     1.593000000    -3.503000000
H    -4.380000000     2.712000000    -4.345000000
O     3.419000000    -2.793000000    -1.041000000
H     3.765000000    -1.963000000    -0.712000000
H     3.777000000    -2.869000000    -1.925000000
O     3.570000000    -0.559000000    -5.797000000
H     2.788000000    -0.287000000    -5.318000000
H     3.969000000     0.261000000    -6.090000000
O    -1.395000000    -2.579000000    -4.464000000
H    -0.719000000    -2.807000000    -5.102000000
H    -1.087000000    -2.959000000    -3.642000000
