161
-3042.94094
C     0.480000000     0.757000000     1.210000000
H     0.727000000     1.236000000     2.154000000
C     0.405000000    -0.649000000     1.061000000
H     0.618000000    -1.304000000     1.903000000
C    -0.032000000    -1.245000000    -0.092000000
C     0.014000000    -2.733000000    -0.361000000
H    -0.949000000    -3.158000000    -0.072000000
H     0.239000000    -2.943000000    -1.409000000
H     0.829000000    -3.012000000     0.311000000
C    -0.503000000    -0.435000000    -1.131000000
H    -0.845000000    -0.899000000    -2.052000000
C    -0.581000000     0.928000000    -0.949000000
H    -0.922000000     1.558000000    -1.767000000
C    -0.054000000     1.537000000     0.242000000
C     0.113000000     3.023000000     0.304000000
O    -0.250000000     3.782000000    -0.584000000
O     0.714000000     3.557000000     1.232000000
O    -5.195000000     0.287000000    -3.725000000
H    -4.859000000     0.362000000    -4.617000000
H    -4.671000000     0.907000000    -3.218000000
O     4.481000000     1.979000000     1.242000000
H     3.567000000     2.258000000     1.194000000
H     4.601000000     1.419000000     0.475000000
O     2.257000000    -5.134000000    -2.891000000
H     2.637000000    -4.732000000    -3.672000000
H     1.311000000    -5.079000000    -3.029000000
O     2.518000000     5.586000000     0.841000000
H     2.218000000     6.231000000     0.200000000
H     1.829000000     4.922000000     0.853000000
O    -0.367000000     5.854000000    -3.892000000
H    -0.155000000     6.744000000    -4.172000000
H    -0.708000000     5.430000000    -4.679000000
O     0.517000000    -2.309000000    -6.034000000
H     1.168000000    -2.388000000    -6.731000000
H    -0.308000000    -2.566000000    -6.446000000
O     2.808000000    -0.055000000    -0.281000000
H     2.682000000     0.672000000    -0.891000000
H     1.947000000    -0.184000000     0.118000000
O    -3.512000000     0.164000000     3.911000000
H    -3.408000000    -0.293000000     4.746000000
H    -4.391000000     0.540000000     3.951000000
O    -1.951000000    -4.774000000     1.728000000
H    -2.251000000    -5.629000000     2.037000000
H    -2.554000000    -4.551000000     1.019000000
O    -4.206000000    -4.463000000    -0.352000000
H    -5.124000000    -4.546000000    -0.091000000
H    -4.141000000    -3.584000000    -0.725000000
O    -3.703000000     6.283000000     2.077000000
H    -3.107000000     5.570000000     2.307000000
H    -4.469000000     5.845000000     1.707000000
O     1.226000000     6.546000000     4.782000000
H     0.749000000     6.707000000     3.967000000
H     1.622000000     5.684000000     4.661000000
O     0.257000000     0.178000000    -4.772000000
H    -0.643000000    -0.044000000    -4.533000000
H     0.636000000    -0.648000000    -5.073000000
O    -4.969000000     2.698000000    -0.166000000
H    -4.159000000     2.371000000     0.225000000
H    -5.322000000     3.303000000     0.487000000
O    -2.044000000     4.202000000     2.189000000
H    -1.131000000     4.157000000     1.905000000
H    -2.399000000     3.335000000     1.994000000
O     2.276000000    -2.341000000     5.730000000
H     1.507000000    -2.168000000     6.273000000
H     2.726000000    -1.498000000     5.676000000
O    -0.312000000    -5.386000000     5.546000000
H    -0.324000000    -4.635000000     4.952000000
H     0.581000000    -5.725000000     5.485000000
O    -0.154000000     6.345000000    -0.176000000
H    -0.401000000     5.429000000    -0.307000000
H     0.545000000     6.498000000    -0.813000000
O     1.609000000    -4.408000000     3.611000000
H     1.942000000    -3.819000000     2.933000000
H     1.643000000    -3.890000000     4.415000000
O     3.729000000     3.882000000    -1.079000000
H     3.290000000     4.622000000    -0.659000000
H     3.072000000     3.518000000    -1.672000000
O    -3.654000000    -1.967000000    -1.295000000
H    -4.493000000    -1.507000000    -1.269000000
H    -3.103000000    -1.495000000    -0.671000000
O    -2.901000000     1.492000000     1.585000000
H    -2.253000000     0.888000000     1.223000000
H    -3.243000000     1.042000000     2.358000000
O    -2.715000000     7.422000000    -0.132000000
H    -2.981000000     6.890000000     0.619000000
H    -1.868000000     7.062000000    -0.392000000
O     1.188000000     3.856000000    -2.917000000
H     0.665000000     3.663000000    -2.139000000
H     0.784000000     4.641000000    -3.288000000
O     0.016000000     2.456000000    -6.560000000
H     0.082000000     1.669000000    -6.019000000
H    -0.488000000     2.178000000    -7.325000000
O    -2.229000000     0.201000000    -4.160000000
H    -2.429000000     0.840000000    -3.476000000
H    -2.888000000     0.360000000    -4.836000000
O     4.011000000    -6.290000000     1.011000000
H     3.887000000    -5.571000000     0.391000000
H     4.173000000    -7.055000000     0.460000000
O     0.395000000     7.608000000     2.302000000
H     0.167000000     6.860000000     1.750000000
H     1.237000000     7.910000000     1.960000000
O    -2.983000000    -1.704000000     1.626000000
H    -2.305000000    -2.002000000     2.231000000
H    -3.477000000    -1.051000000     2.121000000
O    -5.145000000     5.199000000    -1.834000000
H    -5.466000000     4.584000000    -1.174000000
H    -4.217000000     4.985000000    -1.929000000
O     1.997000000     7.060000000    -1.509000000
H     2.513000000     7.836000000    -1.290000000
H     1.968000000     7.054000000    -2.466000000
O    -4.707000000    -2.549000000    -4.577000000
H    -3.796000000    -2.759000000    -4.371000000
H    -4.842000000    -1.677000000    -4.206000000
O     0.349000000    -6.526000000     2.197000000
H     1.092000000    -6.381000000     2.781000000
H     0.076000000    -5.647000000     1.934000000
O     2.985000000    -2.324000000     1.411000000
H     3.089000000    -1.611000000     0.780000000
H     3.671000000    -2.170000000     2.061000000
O     3.782000000    -4.244000000    -0.829000000
H     3.197000000    -3.858000000    -0.176000000
H     3.194000000    -4.614000000    -1.487000000
O    -2.216000000    -2.599000000    -3.570000000
H    -2.737000000    -2.436000000    -2.783000000
H    -1.904000000    -1.734000000    -3.835000000
O     1.648000000     4.278000000     6.594000000
H     1.507000000     3.513000000     6.037000000
H     1.177000000     4.986000000     6.155000000
O     4.472000000     1.593000000     3.741000000
H     4.652000000     1.955000000     2.873000000
H     5.185000000     0.974000000     3.895000000
O     4.182000000     5.199000000     3.277000000
H     3.575000000     4.734000000     3.853000000
H     3.718000000     5.264000000     2.442000000
O     2.159000000     1.347000000    -3.158000000
H     1.594000000     0.847000000    -3.747000000
H     1.809000000     2.237000000    -3.188000000
O     1.681000000     3.885000000     3.533000000
H     2.019000000     2.991000000     3.481000000
H     1.019000000     3.930000000     2.842000000
O    -2.421000000     4.719000000    -1.845000000
H    -2.058000000     5.276000000    -2.534000000
H    -1.670000000     4.500000000    -1.293000000
O     4.044000000    -1.194000000    -3.011000000
H     3.957000000    -0.793000000    -3.876000000
H     3.254000000    -0.926000000    -2.542000000
O    -1.501000000    -3.228000000     4.010000000
H    -2.131000000    -3.938000000     4.129000000
H    -1.130000000    -3.378000000     3.140000000
O    -0.392000000    -4.768000000    -3.547000000
H    -0.399000000    -4.825000000    -4.502000000
H    -0.898000000    -3.979000000    -3.350000000
O    -3.533000000     2.021000000    -2.547000000
H    -3.024000000     2.831000000    -2.579000000
H    -4.302000000     2.242000000    -2.022000000
O     1.137000000     1.666000000     5.240000000
H     0.424000000     1.043000000     5.100000000
H     1.879000000     1.125000000     5.509000000
O    -0.692000000    -0.642000000     4.731000000
H    -1.210000000    -1.447000000     4.703000000
H    -1.341000000     0.061000000     4.705000000
