161
-3065.37314
C     1.114000000     0.937000000     0.417000000
H     1.890000000     1.683000000     0.568000000
C     0.978000000     0.377000000    -0.843000000
H     1.576000000     0.652000000    -1.708000000
C    -0.037000000    -0.541000000    -1.050000000
C    -0.292000000    -1.100000000    -2.410000000
H    -0.943000000    -0.419000000    -2.962000000
H     0.534000000    -1.081000000    -3.124000000
H    -0.882000000    -2.019000000    -2.401000000
C    -0.962000000    -0.895000000    -0.077000000
H    -1.804000000    -1.503000000    -0.399000000
C    -0.841000000    -0.326000000     1.185000000
H    -1.641000000    -0.502000000     1.899000000
C     0.230000000     0.550000000     1.471000000
C     0.292000000     1.227000000     2.789000000
O    -0.015000000     0.618000000     3.863000000
O     0.796000000     2.341000000     2.787000000
O    -0.746000000     2.872000000    -3.367000000
H    -0.963000000     2.633000000    -2.466000000
H    -1.052000000     3.774000000    -3.456000000
O    -1.461000000     5.105000000     6.162000000
H    -1.271000000     5.282000000     5.241000000
H    -0.662000000     5.357000000     6.624000000
O     2.236000000    -3.368000000     6.276000000
H     1.987000000    -2.487000000     5.997000000
H     2.910000000    -3.636000000     5.652000000
O    -1.327000000    -0.866000000    -5.999000000
H    -0.435000000    -1.186000000    -5.868000000
H    -1.271000000     0.075000000    -5.832000000
O    -4.427000000    -0.412000000     3.051000000
H    -4.463000000    -1.368000000     3.080000000
H    -3.661000000    -0.186000000     3.579000000
O    -3.485000000     2.909000000     6.819000000
H    -3.492000000     2.527000000     5.941000000
H    -2.906000000     3.667000000     6.745000000
O    -3.624000000    -2.453000000    -3.088000000
H    -3.259000000    -3.090000000    -2.474000000
H    -4.517000000    -2.759000000    -3.248000000
O    -2.304000000     1.725000000    -0.792000000
H    -1.706000000     1.052000000    -0.467000000
H    -3.082000000     1.641000000    -0.241000000
O     2.354000000    -3.940000000    -3.790000000
H     1.480000000    -3.829000000    -3.416000000
H     2.301000000    -4.757000000    -4.286000000
O    -0.806000000     1.923000000    -5.807000000
H    -0.791000000     2.115000000    -4.869000000
H    -1.451000000     2.532000000    -6.166000000
O    -1.407000000    -3.632000000    -4.724000000
H    -1.946000000    -2.896000000    -4.433000000
H    -1.020000000    -3.978000000    -3.920000000
O     3.289000000    -1.452000000    -2.773000000
H     3.349000000    -0.938000000    -3.578000000
H     3.018000000    -2.323000000    -3.065000000
O     3.449000000    -2.236000000     2.883000000
H     3.559000000    -3.082000000     3.315000000
H     3.361000000    -2.450000000     1.955000000
O    -1.179000000    -4.534000000     0.003000000
H    -0.946000000    -3.607000000     0.060000000
H    -0.897000000    -4.904000000     0.839000000
O     3.174000000     4.054000000     3.258000000
H     2.505000000     3.413000000     3.497000000
H     3.103000000     4.132000000     2.307000000
O    -3.505000000    -4.968000000    -1.432000000
H    -3.629000000    -5.862000000    -1.751000000
H    -2.640000000    -4.978000000    -1.023000000
O     3.306000000     6.590000000     0.838000000
H     3.635000000     6.503000000    -0.057000000
H     2.615000000     5.930000000     0.903000000
O     0.143000000     6.742000000     2.756000000
H    -0.163000000     7.594000000     2.447000000
H     1.094000000     6.778000000     2.657000000
O     0.524000000    -3.196000000     2.947000000
H     1.326000000    -2.878000000     3.363000000
H     0.765000000    -3.322000000     2.029000000
O     4.417000000     2.601000000    -2.449000000
H     3.583000000     2.411000000    -2.879000000
H     4.633000000     3.491000000    -2.727000000
O    -2.620000000     0.968000000     4.612000000
H    -2.707000000     0.637000000     5.506000000
H    -1.678000000     0.951000000     4.442000000
O    -0.135000000    -5.044000000    -2.585000000
H     0.044000000    -4.900000000    -1.656000000
H    -0.133000000    -5.996000000    -2.684000000
O     1.409000000     1.493000000    -7.256000000
H     1.296000000     2.222000000    -7.867000000
H     0.572000000     1.435000000    -6.795000000
O     0.444000000    -4.768000000    -6.596000000
H     0.306000000    -4.176000000    -7.336000000
H    -0.373000000    -4.725000000    -6.099000000
O     5.114000000     1.097000000     0.033000000
H     5.295000000     1.748000000     0.711000000
H     4.744000000     1.603000000    -0.691000000
O     1.515000000     5.513000000    -1.793000000
H     2.194000000     5.502000000    -2.467000000
H     0.774000000     5.055000000    -2.192000000
O     1.394000000     4.934000000     7.073000000
H     1.904000000     4.561000000     6.355000000
H     1.479000000     5.881000000     6.961000000
O     1.439000000     1.992000000     5.878000000
H     0.832000000     1.739000000     6.574000000
H     0.943000000     1.863000000     5.070000000
O    -4.401000000     1.184000000     0.904000000
H    -4.433000000     0.654000000     1.700000000
H    -5.123000000     0.855000000     0.368000000
O     1.601000000    -0.593000000     7.513000000
H     1.451000000    -0.556000000     6.568000000
H     2.280000000     0.061000000     7.674000000
O     2.509000000    -3.764000000     0.007000000
H     2.795000000    -2.916000000    -0.330000000
H     3.315000000    -4.192000000     0.296000000
O    -1.660000000    -1.855000000     4.216000000
H    -0.922000000    -2.234000000     3.738000000
H    -1.374000000    -0.968000000     4.433000000
O     4.590000000     0.403000000     3.480000000
H     4.510000000     0.688000000     2.570000000
H     4.579000000    -0.553000000     3.433000000
O    -1.038000000     4.505000000     3.439000000
H    -0.467000000     5.244000000     3.230000000
H    -0.453000000     3.748000000     3.457000000
O    -4.550000000     2.033000000    -2.862000000
H    -3.925000000     2.080000000    -2.138000000
H    -4.152000000     1.424000000    -3.483000000
O    -3.476000000     3.433000000     3.373000000
H    -3.312000000     2.525000000     3.627000000
H    -2.606000000     3.828000000     3.318000000
O    -4.792000000    -3.355000000     0.409000000
H    -4.502000000    -3.848000000    -0.358000000
H    -4.148000000    -3.564000000     1.086000000
O     5.592000000     2.923000000     1.989000000
H     5.904000000     3.757000000     1.638000000
H     4.916000000     3.168000000     2.621000000
O    -3.804000000    -1.407000000     6.189000000
H    -2.995000000    -1.874000000     6.397000000
H    -4.433000000    -2.098000000     5.982000000
O     1.974000000     2.673000000    -3.846000000
H     1.993000000     3.417000000    -4.448000000
H     1.043000000     2.513000000    -3.692000000
O     1.585000000    -1.236000000     4.614000000
H     2.422000000    -0.959000000     4.241000000
H     0.948000000    -0.616000000     4.259000000
O    -1.342000000    -5.468000000     3.512000000
H    -0.958000000    -6.293000000     3.218000000
H    -0.718000000    -4.799000000     3.232000000
O    -3.879000000    -3.846000000     3.220000000
H    -3.115000000    -4.411000000     3.336000000
H    -3.863000000    -3.262000000     3.978000000
O     1.523000000     4.069000000     1.003000000
H     0.904000000     4.401000000     0.353000000
H     1.053000000     3.360000000     1.442000000
O     4.119000000     2.200000000     5.450000000
H     3.170000000     2.247000000     5.331000000
H     4.402000000     1.512000000     4.848000000
O     3.857000000    -1.289000000    -0.241000000
H     4.165000000    -0.386000000    -0.173000000
H     3.600000000    -1.387000000    -1.158000000
O     2.750000000     0.224000000    -5.027000000
H     2.626000000     0.356000000    -5.967000000
H     2.533000000     1.070000000    -4.636000000
O    -3.580000000     0.002000000    -4.292000000
H    -2.967000000    -0.334000000    -4.946000000
H    -3.696000000    -0.722000000    -3.678000000
