161
-3025.68650
C    -0.769000000    -0.337000000     1.226000000
H    -1.237000000    -0.411000000     2.204000000
C    -0.360000000     0.938000000     0.882000000
H    -0.668000000     1.771000000     1.509000000
C     0.358000000     1.115000000    -0.265000000
C     0.744000000     2.537000000    -0.690000000
H     1.420000000     2.377000000    -1.532000000
H    -0.139000000     3.021000000    -1.111000000
H     1.161000000     3.117000000     0.137000000
C     0.758000000     0.041000000    -1.033000000
H     1.338000000     0.229000000    -1.933000000
C     0.275000000    -1.224000000    -0.769000000
H     0.540000000    -2.041000000    -1.435000000
C    -0.487000000    -1.460000000     0.392000000
C    -0.881000000    -2.856000000     0.705000000
O    -0.784000000    -3.733000000    -0.106000000
O    -1.265000000    -3.092000000     1.825000000
O    -0.770000000     5.382000000     0.005000000
H    -0.927000000     6.159000000     0.542000000
H    -0.059000000     5.638000000    -0.583000000
O    -1.593000000     3.771000000     3.066000000
H    -2.191000000     3.502000000     3.763000000
H    -1.989000000     4.563000000     2.702000000
O    -5.052000000    -5.449000000     4.529000000
H    -4.699000000    -5.287000000     3.653000000
H    -5.320000000    -4.586000000     4.842000000
O    -4.640000000     4.864000000    -1.080000000
H    -4.484000000     5.025000000    -2.010000000
H    -3.977000000     4.219000000    -0.834000000
O     3.187000000     3.919000000    -5.899000000
H     2.869000000     3.686000000    -6.771000000
H     2.429000000     4.309000000    -5.464000000
O    -3.172000000     0.442000000    -0.149000000
H    -2.229000000     0.503000000    -0.301000000
H    -3.295000000     0.796000000     0.732000000
O     0.687000000    -2.575000000     3.796000000
H     0.924000000    -3.500000000     3.722000000
H    -0.075000000    -2.477000000     3.224000000
O    -1.412000000     1.707000000     6.246000000
H    -1.332000000     0.765000000     6.394000000
H    -0.523000000     2.044000000     6.362000000
O    -1.180000000     2.193000000    -3.407000000
H    -0.392000000     1.819000000    -3.012000000
H    -1.871000000     2.025000000    -2.766000000
O    -1.861000000     3.082000000    -6.008000000
H    -2.406000000     3.825000000    -5.747000000
H    -1.474000000     2.770000000    -5.191000000
O     3.577000000     6.002000000    -3.456000000
H     4.041000000     6.109000000    -2.626000000
H     4.178000000     6.353000000    -4.113000000
O     6.431000000    -0.604000000    -0.040000000
H     5.497000000    -0.392000000    -0.027000000
H     6.650000000    -0.778000000     0.876000000
O    -1.204000000    -1.037000000     6.701000000
H    -0.303000000    -1.269000000     6.475000000
H    -1.638000000    -1.877000000     6.847000000
O    -1.643000000    -2.208000000    -3.544000000
H    -1.978000000    -1.508000000    -4.104000000
H    -1.151000000    -1.754000000    -2.860000000
O     1.556000000    -1.631000000     5.938000000
H     1.147000000    -2.069000000     5.191000000
H     2.464000000    -1.497000000     5.668000000
O     3.906000000     0.449000000    -0.076000000
H     2.961000000     0.581000000    -0.152000000
H     4.246000000     1.300000000     0.198000000
O     2.021000000     0.056000000     3.252000000
H     1.068000000    -0.008000000     3.313000000
H     2.262000000    -0.590000000     2.588000000
O     2.847000000    -2.177000000     0.810000000
H     3.509000000    -2.505000000     1.419000000
H     3.247000000    -1.403000000     0.414000000
O     1.374000000     4.282000000     3.404000000
H     0.454000000     4.103000000     3.209000000
H     1.585000000     3.691000000     4.126000000
O     1.588000000     6.217000000    -1.416000000
H     2.326000000     6.434000000    -0.846000000
H     1.979000000     6.114000000    -2.284000000
O     1.843000000    -5.320000000     4.431000000
H     2.579000000    -5.761000000     4.007000000
H     1.357000000    -6.024000000     4.860000000
O     4.726000000     1.954000000    -2.631000000
H     5.102000000     2.564000000    -3.267000000
H     4.841000000     2.388000000    -1.786000000
O    -1.015000000    -6.473000000     1.678000000
H    -0.700000000    -5.576000000     1.568000000
H    -1.110000000    -6.805000000     0.785000000
O    -2.183000000    -6.922000000    -3.724000000
H    -1.487000000    -6.713000000    -4.347000000
H    -2.108000000    -6.250000000    -3.047000000
O    -3.371000000    -5.246000000     2.240000000
H    -2.712000000    -5.923000000     2.089000000
H    -2.867000000    -4.440000000     2.351000000
O    -1.446000000    -7.352000000    -0.636000000
H    -1.320000000    -6.882000000    -1.461000000
H    -2.352000000    -7.660000000    -0.673000000
O    -3.983000000    -0.505000000     5.603000000
H    -3.191000000    -0.737000000     6.088000000
H    -3.996000000    -1.110000000     4.862000000
O    -3.437000000     3.009000000     5.104000000
H    -2.731000000     2.461000000     5.446000000
H    -3.490000000     3.743000000     5.716000000
O     4.609000000    -2.649000000    -1.907000000
H     4.054000000    -2.660000000    -1.127000000
H     5.266000000    -3.326000000    -1.744000000
O    -3.640000000     1.227000000     3.032000000
H    -3.538000000     1.702000000     3.857000000
H    -3.497000000     0.310000000     3.265000000
O    -4.143000000     1.841000000    -2.867000000
H    -3.851000000     0.954000000    -2.659000000
H    -5.028000000     1.893000000    -2.505000000
O    -1.676000000    -4.838000000    -2.196000000
H    -1.833000000    -4.041000000    -2.704000000
H    -1.352000000    -4.524000000    -1.352000000
O    -5.830000000    -4.868000000     1.020000000
H    -5.481000000    -4.802000000     0.131000000
H    -5.062000000    -5.039000000     1.566000000
O     2.976000000    -1.981000000    -5.208000000
H     2.336000000    -2.655000000    -4.978000000
H     2.632000000    -1.179000000    -4.813000000
O    -2.032000000     4.863000000    -2.902000000
H    -2.205000000     4.528000000    -2.022000000
H    -2.113000000     4.098000000    -3.470000000
O     4.031000000     2.330000000     2.318000000
H     3.361000000     1.955000000     2.890000000
H     3.755000000     3.238000000     2.190000000
O    -4.423000000    -1.922000000    -1.014000000
H    -4.956000000    -1.951000000    -0.220000000
H    -3.674000000    -1.373000000    -0.781000000
O    -1.491000000    -8.054000000     3.774000000
H    -1.329000000    -7.312000000     3.192000000
H    -0.639000000    -8.242000000     4.167000000
O     2.629000000     0.892000000    -4.153000000
H     3.271000000     1.125000000    -3.483000000
H     2.395000000     1.726000000    -4.561000000
O    -5.002000000    -4.829000000    -1.477000000
H    -4.817000000    -3.915000000    -1.691000000
H    -4.149000000    -5.261000000    -1.514000000
O    -3.782000000    -1.747000000     2.880000000
H    -4.535000000    -2.049000000     2.372000000
H    -3.063000000    -2.316000000     2.604000000
O     3.255000000     5.031000000     1.019000000
H     3.485000000     5.955000000     1.111000000
H     2.465000000     4.926000000     1.550000000
O    -6.202000000     0.958000000     1.561000000
H    -6.004000000     0.022000000     1.566000000
H    -5.524000000     1.349000000     2.112000000
O     1.467000000     6.883000000     3.126000000
H     1.837000000     7.264000000     3.922000000
H     1.421000000     5.944000000     3.309000000
O     5.226000000     3.252000000    -0.410000000
H     4.531000000     3.825000000    -0.089000000
H     6.004000000     3.810000000    -0.437000000
O     1.706000000    -4.879000000     0.537000000
H     1.950000000    -3.965000000     0.677000000
H     0.822000000    -4.838000000     0.172000000
O    -0.080000000     6.499000000    -3.596000000
H     0.283000000     6.509000000    -2.711000000
H    -0.937000000     6.083000000    -3.499000000
O    -2.647000000     3.400000000    -0.130000000
H    -1.917000000     4.010000000    -0.021000000
H    -2.880000000     3.144000000     0.762000000
