161
-3002.77059
C    -0.456000000    -0.310000000     1.387000000
H    -0.893000000    -0.536000000     2.356000000
C    -0.339000000     0.953000000     0.874000000
H    -0.802000000     1.769000000     1.423000000
C     0.031000000     1.126000000    -0.471000000
C     0.062000000     2.468000000    -1.111000000
H    -0.776000000     2.513000000    -1.809000000
H    -0.031000000     3.273000000    -0.378000000
H     0.969000000     2.598000000    -1.704000000
C     0.515000000     0.096000000    -1.153000000
H     1.034000000     0.197000000    -2.102000000
C     0.458000000    -1.158000000    -0.611000000
H     0.815000000    -1.956000000    -1.257000000
C    -0.061000000    -1.401000000     0.643000000
C    -0.099000000    -2.843000000     1.141000000
O    -0.084000000    -3.799000000     0.433000000
O    -0.341000000    -2.990000000     2.333000000
O     3.969000000     5.381000000    -2.943000000
H     3.992000000     6.208000000    -3.425000000
H     3.138000000     5.403000000    -2.469000000
O    -2.290000000     3.842000000    -3.617000000
H    -1.638000000     4.120000000    -4.261000000
H    -2.821000000     4.623000000    -3.462000000
O     1.768000000    -7.168000000    -1.925000000
H     2.058000000    -6.352000000    -1.518000000
H     0.841000000    -7.025000000    -2.116000000
O    -5.583000000     0.875000000    -0.387000000
H    -5.258000000     1.549000000     0.210000000
H    -4.890000000     0.780000000    -1.040000000
O    -3.427000000     5.942000000     2.186000000
H    -3.237000000     5.827000000     3.117000000
H    -2.580000000     6.151000000     1.793000000
O    -0.426000000    -0.478000000     5.703000000
H     0.343000000    -0.043000000     5.335000000
H    -0.309000000    -1.401000000     5.479000000
O    -4.402000000     2.125000000     1.951000000
H    -3.672000000     2.288000000     2.548000000
H    -5.098000000     2.705000000     2.260000000
O     0.172000000    -3.320000000     4.849000000
H    -0.322000000    -4.126000000     4.996000000
H    -0.192000000    -2.960000000     4.040000000
O     0.120000000     5.801000000    -4.167000000
H     0.867000000     6.276000000    -3.801000000
H     0.283000000     5.790000000    -5.111000000
O    -3.198000000    -0.013000000     0.647000000
H    -3.758000000     0.503000000     1.227000000
H    -2.421000000     0.532000000     0.518000000
O    -3.698000000     2.023000000    -2.319000000
H    -3.440000000     2.939000000    -2.418000000
H    -2.937000000     1.527000000    -2.622000000
O     1.058000000     6.263000000     2.884000000
H     1.694000000     5.548000000     2.852000000
H     1.583000000     7.056000000     2.773000000
O    -3.419000000    -0.586000000     4.569000000
H    -3.028000000    -1.241000000     5.147000000
H    -3.494000000    -1.026000000     3.723000000
O     2.864000000    -3.672000000     3.500000000
H     3.244000000    -2.873000000     3.864000000
H     1.952000000    -3.657000000     3.790000000
O    -3.066000000    -4.312000000    -2.767000000
H    -3.901000000    -4.765000000    -2.879000000
H    -3.038000000    -4.088000000    -1.837000000
O     0.995000000     2.803000000    -5.039000000
H     0.457000000     3.466000000    -4.607000000
H     1.888000000     2.995000000    -4.753000000
O     1.273000000     0.607000000     3.740000000
H     1.466000000    -0.090000000     3.113000000
H     0.825000000     1.277000000     3.224000000
O     3.527000000     2.898000000     0.059000000
H     3.306000000     2.923000000     0.990000000
H     3.105000000     3.675000000    -0.308000000
O    -2.338000000    -0.702000000    -2.654000000
H    -1.521000000    -1.026000000    -2.275000000
H    -3.021000000    -1.039000000    -2.075000000
O     2.884000000     0.256000000     1.062000000
H     3.397000000     0.999000000     0.744000000
H     2.409000000    -0.053000000     0.291000000
O     0.263000000    -4.331000000    -3.892000000
H    -0.019000000    -5.092000000    -3.386000000
H     0.658000000    -4.701000000    -4.681000000
O     2.211000000    -4.833000000    -0.490000000
H     1.335000000    -4.512000000    -0.277000000
H     2.691000000    -4.054000000    -0.771000000
O    -2.431000000     2.044000000     4.178000000
H    -1.808000000     2.389000000     4.818000000
H    -2.735000000     1.221000000     4.559000000
O    -1.250000000     6.818000000     1.255000000
H    -1.082000000     7.731000000     1.022000000
H    -0.513000000     6.575000000     1.816000000
O     2.489000000    -3.080000000     6.509000000
H     2.885000000    -2.408000000     5.954000000
H     1.547000000    -2.975000000     6.378000000
O    -0.391000000    -7.937000000     0.640000000
H    -0.392000000    -7.165000000     1.205000000
H     0.220000000    -7.718000000    -0.064000000
O     2.005000000     5.305000000    -1.352000000
H     1.088000000     5.162000000    -1.115000000
H     2.406000000     5.655000000    -0.557000000
O    -3.176000000    -6.043000000     2.080000000
H    -3.955000000    -6.516000000     2.374000000
H    -2.497000000    -6.287000000     2.708000000
O     4.835000000    -1.258000000     2.574000000
H     4.142000000    -0.829000000     2.072000000
H     5.409000000    -0.543000000     2.850000000
O     2.463000000    -0.417000000    -4.532000000
H     2.801000000    -0.104000000    -3.693000000
H     3.159000000    -0.978000000    -4.876000000
O     3.410000000     6.021000000     0.680000000
H     4.117000000     6.466000000     0.213000000
H     3.718000000     5.965000000     1.584000000
O    -2.823000000    -3.221000000     5.891000000
H    -2.460000000    -4.007000000     6.298000000
H    -2.709000000    -3.362000000     4.952000000
O    -0.780000000    -6.235000000    -2.193000000
H    -1.297000000    -5.458000000    -1.980000000
H    -1.279000000    -6.964000000    -1.824000000
O     3.667000000    -5.548000000     1.843000000
H     3.115000000    -5.308000000     1.100000000
H     3.466000000    -4.894000000     2.512000000
O    -1.296000000    -2.230000000    -5.192000000
H    -0.869000000    -2.827000000    -4.578000000
H    -0.906000000    -1.375000000    -5.006000000
O    -2.725000000    -4.066000000     0.240000000
H    -2.931000000    -4.799000000     0.820000000
H    -1.805000000    -3.871000000     0.418000000
O     3.425000000     3.165000000    -4.427000000
H     4.148000000     3.073000000    -5.048000000
H     3.678000000     3.904000000    -3.873000000
O    -0.036000000     0.239000000    -4.805000000
H     0.858000000    -0.084000000    -4.689000000
H     0.054000000     1.192000000    -4.820000000
O    -2.805000000     1.112000000    -5.826000000
H    -2.037000000     0.948000000    -5.278000000
H    -3.312000000     0.302000000    -5.778000000
O     3.298000000     3.348000000     2.739000000
H     3.077000000     2.832000000     3.515000000
H     3.591000000     4.190000000     3.087000000
O    -3.002000000    -3.144000000     3.253000000
H    -2.060000000    -3.093000000     3.086000000
H    -3.302000000    -3.873000000     2.709000000
O     4.053000000     0.523000000    -2.024000000
H     3.773000000     1.418000000    -1.832000000
H     4.993000000     0.522000000    -1.839000000
O    -3.840000000    -2.039000000    -0.885000000
H    -3.759000000    -1.291000000    -0.293000000
H    -3.494000000    -2.779000000    -0.385000000
O     0.242000000     3.335000000     3.406000000
H     0.373000000     3.844000000     4.206000000
H     0.572000000     3.898000000     2.706000000
O    -0.416000000    -5.829000000     2.827000000
H     0.415000000    -6.040000000     3.251000000
H    -0.294000000    -4.941000000     2.489000000
O    -2.496000000     4.973000000     4.625000000
H    -2.368000000     4.105000000     4.244000000
H    -2.981000000     4.811000000     5.434000000
O     3.575000000    -2.505000000    -1.249000000
H     3.784000000    -1.581000000    -1.112000000
H     4.256000000    -2.819000000    -1.844000000
O    -1.244000000     7.342000000    -1.499000000
H    -1.278000000     6.712000000    -2.220000000
H    -1.637000000     6.880000000    -0.759000000
