161
-3024.11101
C    -0.267000000    -0.467000000     1.412000000
H    -0.623000000    -0.758000000     2.397000000
C    -0.227000000     0.891000000     0.958000000
H    -0.611000000     1.654000000     1.629000000
C     0.033000000     1.187000000    -0.373000000
C    -0.116000000     2.595000000    -0.976000000
H     0.741000000     3.141000000    -0.578000000
H     0.048000000     2.637000000    -2.055000000
H    -1.045000000     3.105000000    -0.713000000
C     0.298000000     0.143000000    -1.232000000
H     0.419000000     0.356000000    -2.291000000
C     0.355000000    -1.201000000    -0.803000000
H     0.651000000    -2.026000000    -1.445000000
C     0.106000000    -1.481000000     0.527000000
C     0.099000000    -2.915000000     1.066000000
O    -0.151000000    -3.754000000     0.255000000
O     0.291000000    -3.110000000     2.226000000
O    -2.204000000     1.798000000     4.907000000
H    -2.537000000     2.368000000     5.600000000
H    -1.726000000     1.111000000     5.372000000
O    -2.151000000     4.071000000    -4.738000000
H    -2.592000000     3.417000000    -5.280000000
H    -2.077000000     4.840000000    -5.304000000
O     3.065000000    -5.866000000    -0.675000000
H     2.285000000    -6.122000000    -1.167000000
H     2.753000000    -5.203000000    -0.060000000
O    -6.122000000     2.531000000    -0.542000000
H    -5.994000000     3.300000000     0.014000000
H    -5.235000000     2.252000000    -0.772000000
O    -3.902000000     4.006000000     0.144000000
H    -3.350000000     3.933000000     0.922000000
H    -4.659000000     4.516000000     0.434000000
O     1.464000000     0.177000000     6.035000000
H     0.784000000     0.847000000     6.096000000
H     0.983000000    -0.647000000     5.958000000
O    -3.672000000     1.188000000     0.576000000
H    -3.898000000     0.940000000     1.472000000
H    -3.116000000     1.961000000     0.674000000
O     0.748000000    -2.571000000     5.039000000
H     0.409000000    -3.442000000     5.244000000
H     0.831000000    -2.564000000     4.086000000
O    -3.470000000     3.035000000    -2.414000000
H    -2.776000000     3.428000000    -2.944000000
H    -3.587000000     3.642000000    -1.683000000
O     3.417000000     0.542000000    -2.158000000
H     2.892000000     0.623000000    -2.954000000
H     4.324000000     0.569000000    -2.465000000
O    -4.042000000     0.328000000     3.484000000
H    -3.984000000    -0.539000000     3.886000000
H    -3.248000000     0.778000000     3.770000000
O     4.057000000    -3.145000000    -3.119000000
H     3.955000000    -4.089000000    -3.241000000
H     4.546000000    -2.856000000    -3.889000000
O    -4.118000000    -6.038000000    -2.180000000
H    -4.119000000    -6.734000000    -1.522000000
H    -3.335000000    -5.524000000    -1.984000000
O     2.503000000     3.766000000    -4.373000000
H     2.695000000     3.861000000    -3.441000000
H     3.022000000     4.450000000    -4.796000000
O     2.731000000     3.008000000     4.963000000
H     2.831000000     2.834000000     4.027000000
H     2.972000000     2.184000000     5.386000000
O     4.568000000     4.465000000    -0.457000000
H     4.407000000     3.559000000    -0.192000000
H     3.799000000     4.703000000    -0.976000000
O    -2.729000000    -0.860000000    -0.934000000
H    -1.860000000    -0.663000000    -0.585000000
H    -3.247000000    -0.078000000    -0.741000000
O     2.450000000     1.808000000     2.403000000
H     3.029000000     1.963000000     1.657000000
H     1.585000000     1.680000000     2.013000000
O    -0.203000000    -4.507000000    -4.201000000
H    -0.216000000    -5.184000000    -4.877000000
H     0.484000000    -3.902000000    -4.480000000
O     3.098000000    -3.474000000     2.139000000
H     2.254000000    -3.308000000     2.560000000
H     3.117000000    -2.872000000     1.395000000
O    -1.308000000     6.767000000    -0.299000000
H    -0.655000000     6.800000000     0.400000000
H    -2.044000000     7.279000000     0.036000000
O     3.180000000    -2.613000000     6.836000000
H     3.937000000    -2.319000000     6.330000000
H     2.441000000    -2.530000000     6.233000000
O     0.036000000    -7.396000000     0.777000000
H     0.583000000    -7.199000000     1.537000000
H     0.363000000    -6.815000000     0.090000000
O     1.978000000     5.686000000    -1.284000000
H     1.263000000     5.176000000    -1.663000000
H     1.788000000     6.590000000    -1.537000000
O    -2.655000000    -6.105000000     2.941000000
H    -3.465000000    -6.596000000     2.799000000
H    -1.972000000    -6.775000000     2.975000000
O     4.756000000    -0.358000000     2.759000000
H     3.857000000    -0.106000000     2.972000000
H     5.298000000     0.176000000     3.341000000
O     1.775000000    -2.430000000    -4.701000000
H     2.490000000    -2.538000000    -4.073000000
H     2.187000000    -2.032000000    -5.467000000
O     2.269000000     0.795000000    -4.676000000
H     2.262000000     1.745000000    -4.566000000
H     2.996000000     0.628000000    -5.276000000
O    -3.529000000    -1.990000000     4.549000000
H    -2.738000000    -2.036000000     5.087000000
H    -3.318000000    -2.503000000     3.769000000
O    -3.481000000    -0.892000000    -4.407000000
H    -3.556000000    -0.546000000    -3.518000000
H    -3.311000000    -1.826000000    -4.287000000
O     0.570000000    -5.685000000    -1.610000000
H     0.250000000    -4.959000000    -1.075000000
H     0.345000000    -5.439000000    -2.507000000
O     5.218000000    -5.015000000     3.308000000
H     4.384000000    -4.771000000     2.906000000
H     5.263000000    -4.487000000     4.105000000
O    -2.329000000    -2.939000000    -3.092000000
H    -1.477000000    -3.372000000    -3.139000000
H    -2.229000000    -2.287000000    -2.399000000
O    -2.354000000    -5.366000000    -0.109000000
H    -2.332000000    -5.720000000     0.780000000
H    -1.519000000    -4.909000000    -0.206000000
O    -0.265000000    -0.338000000    -4.843000000
H    -0.241000000    -1.264000000    -4.605000000
H     0.622000000    -0.023000000    -4.669000000
O    -2.135000000     1.349000000    -5.791000000
H    -1.499000000     0.680000000    -5.539000000
H    -2.969000000     1.029000000    -5.446000000
O     1.866000000     5.215000000     1.400000000
H     2.188000000     5.589000000     0.580000000
H     1.933000000     5.930000000     2.032000000
O    -2.375000000    -3.440000000     2.586000000
H    -1.432000000    -3.355000000     2.446000000
H    -2.486000000    -4.322000000     2.942000000
O    -0.154000000    -5.054000000     5.738000000
H    -0.813000000    -4.458000000     6.093000000
H    -0.514000000    -5.928000000     5.890000000
O     4.087000000     1.801000000     0.079000000
H     4.947000000     1.397000000    -0.036000000
H     3.532000000     1.374000000    -0.573000000
O    -5.203000000    -4.673000000     1.380000000
H    -4.443000000    -4.235000000     1.764000000
H    -5.049000000    -5.604000000     1.540000000
O    -0.400000000     4.975000000     2.899000000
H     0.042000000     4.767000000     3.722000000
H     0.308000000     5.204000000     2.298000000
O     0.908000000    -5.746000000     3.048000000
H     0.645000000    -5.571000000     3.951000000
H     0.392000000    -5.133000000     2.524000000
O    -2.653000000     3.416000000     2.562000000
H    -1.881000000     3.983000000     2.551000000
H    -2.510000000     2.832000000     3.307000000
O     3.300000000    -1.921000000    -0.536000000
H     3.254000000    -0.976000000    -0.682000000
H     3.376000000    -2.296000000    -1.413000000
O     4.876000000     4.537000000     2.325000000
H     4.858000000     4.801000000     1.405000000
H     3.961000000     4.355000000     2.540000000
O    -0.910000000     7.740000000    -2.788000000
H    -0.625000000     6.827000000    -2.765000000
H    -1.234000000     7.912000000    -1.903000000
O     0.177000000     4.739000000    -3.249000000
H     0.718000000     4.369000000    -3.947000000
H    -0.722000000     4.538000000    -3.511000000
