161
-3078.22432
C    -0.092000000     0.879000000     1.248000000
H    -0.267000000     1.356000000     2.209000000
C     0.094000000    -0.499000000     1.256000000
H     0.098000000    -1.099000000     2.162000000
C     0.132000000    -1.210000000    -0.008000000
C     0.124000000    -2.747000000    -0.022000000
H     0.246000000    -3.145000000     0.988000000
H    -0.852000000    -3.136000000    -0.319000000
H     0.890000000    -3.136000000    -0.696000000
C     0.066000000    -0.532000000    -1.219000000
H     0.153000000    -1.066000000    -2.162000000
C    -0.103000000     0.874000000    -1.203000000
H    -0.100000000     1.499000000    -2.092000000
C    -0.127000000     1.582000000     0.018000000
C    -0.120000000     3.075000000    -0.072000000
O     0.040000000     3.709000000    -1.115000000
O    -0.176000000     3.588000000     1.025000000
O    -1.729000000    -0.428000000    -5.181000000
H    -2.290000000    -0.608000000    -5.935000000
H    -2.145000000     0.315000000    -4.744000000
O     3.202000000     1.467000000    -4.866000000
H     2.280000000     1.418000000    -5.120000000
H     3.212000000     1.197000000    -3.948000000
O     1.099000000    -7.183000000    -1.325000000
H     0.349000000    -7.686000000    -1.642000000
H     0.887000000    -6.275000000    -1.542000000
O    -1.151000000     6.179000000    -1.594000000
H    -0.982000000     6.226000000    -2.535000000
H    -0.819000000     5.320000000    -1.334000000
O     2.260000000     5.359000000    -4.288000000
H     3.032000000     5.028000000    -4.747000000
H     2.413000000     5.135000000    -3.370000000
O     3.136000000     0.025000000    -2.550000000
H     2.733000000     0.566000000    -1.871000000
H     3.773000000    -0.514000000    -2.080000000
O     1.810000000     0.394000000     5.241000000
H     2.231000000     1.253000000     5.273000000
H     1.958000000     0.088000000     4.346000000
O    -3.235000000     1.672000000     0.112000000
H    -3.736000000     2.379000000    -0.292000000
H    -2.621000000     2.117000000     0.697000000
O    -4.434000000    -1.739000000     3.271000000
H    -3.708000000    -2.294000000     3.557000000
H    -4.402000000    -0.983000000     3.858000000
O     1.367000000    -3.202000000     4.015000000
H     1.688000000    -4.050000000     3.707000000
H     0.583000000    -3.413000000     4.523000000
O     4.069000000     4.842000000     1.751000000
H     3.797000000     5.754000000     1.854000000
H     3.374000000     4.336000000     2.172000000
O     3.287000000    -1.257000000     3.350000000
H     2.614000000    -1.928000000     3.467000000
H     3.951000000    -1.466000000     4.007000000
O    -2.137000000     8.014000000     3.341000000
H    -1.227000000     8.221000000     3.556000000
H    -2.089000000     7.585000000     2.487000000
O     0.047000000     6.382000000     1.499000000
H    -0.810000000     6.775000000     1.332000000
H    -0.067000000     5.458000000     1.277000000
O    -3.336000000     1.565000000    -4.271000000
H    -2.955000000     2.321000000    -3.825000000
H    -4.279000000     1.727000000    -4.254000000
O    -2.655000000     3.916000000     1.691000000
H    -1.746000000     3.931000000     1.393000000
H    -2.593000000     3.855000000     2.645000000
O    -2.028000000    -2.657000000     4.048000000
H    -1.353000000    -1.986000000     4.154000000
H    -1.799000000    -3.329000000     4.691000000
O    -2.622000000    -4.878000000     1.775000000
H    -2.265000000    -4.954000000     0.890000000
H    -2.302000000    -4.032000000     2.090000000
O    -2.328000000     7.499000000     0.595000000
H    -3.274000000     7.525000000     0.448000000
H    -1.969000000     7.147000000    -0.220000000
O     4.482000000    -5.854000000    -1.068000000
H     5.149000000    -5.243000000    -1.380000000
H     4.704000000    -6.686000000    -1.487000000
O    -0.004000000    -2.648000000    -4.802000000
H    -0.599000000    -1.919000000    -4.978000000
H     0.774000000    -2.238000000    -4.426000000
O    -0.325000000     4.482000000     5.612000000
H     0.477000000     4.569000000     5.096000000
H    -0.078000000     3.916000000     6.344000000
O     2.360000000     7.743000000     1.519000000
H     1.558000000     7.231000000     1.415000000
H     2.159000000     8.363000000     2.219000000
O    -3.795000000    -0.302000000    -1.935000000
H    -3.604000000     0.516000000    -2.393000000
H    -3.494000000    -0.151000000    -1.039000000
O    -0.431000000     5.677000000    -4.391000000
H     0.468000000     5.352000000    -4.348000000
H    -0.393000000     6.408000000    -5.007000000
O    -4.043000000     3.364000000    -1.908000000
H    -4.693000000     4.063000000    -1.832000000
H    -3.282000000     3.788000000    -2.305000000
O     1.482000000    -5.524000000     2.797000000
H     0.627000000    -5.690000000     2.400000000
H     2.092000000    -6.051000000     2.281000000
O    -0.207000000    -5.071000000    -3.255000000
H     0.661000000    -4.812000000    -2.944000000
H    -0.713000000    -4.259000000    -3.255000000
O     3.064000000    -2.482000000    -3.888000000
H     3.274000000    -3.229000000    -3.326000000
H     3.130000000    -1.722000000    -3.310000000
O    -5.244000000     4.143000000     1.088000000
H    -4.287000000     4.169000000     1.073000000
H    -5.478000000     4.473000000     1.955000000
O    -0.701000000    -0.417000000     4.804000000
H     0.151000000    -0.090000000     5.093000000
H    -1.152000000    -0.657000000     5.613000000
O     3.284000000    -2.612000000    -0.320000000
H     4.175000000    -2.472000000    -0.001000000
H     2.818000000    -1.809000000    -0.087000000
O     5.199000000     4.098000000    -1.096000000
H     5.285000000     5.033000000    -0.908000000
H     4.259000000     3.963000000    -1.217000000
O    -2.158000000    -5.263000000    -0.959000000
H    -3.017000000    -4.888000000    -1.150000000
H    -1.861000000    -5.621000000    -1.795000000
O    -5.175000000     1.710000000     4.617000000
H    -4.262000000     1.649000000     4.334000000
H    -5.234000000     1.117000000     5.366000000
O     2.618000000    -6.613000000     0.722000000
H     1.966000000    -7.013000000     0.147000000
H     3.208000000    -6.147000000     0.129000000
O     2.437000000    -4.665000000    -2.301000000
H     2.466000000    -3.909000000    -1.716000000
H     3.176000000    -5.209000000    -2.027000000
O    -2.235000000    -2.340000000    -2.671000000
H    -1.874000000    -1.748000000    -2.012000000
H    -3.012000000    -1.888000000    -3.001000000
O     1.612000000     6.294000000     3.937000000
H     1.139000000     6.127000000     3.122000000
H     1.307000000     7.156000000     4.219000000
O     3.730000000     0.524000000     1.051000000
H     4.590000000     0.938000000     0.980000000
H     3.823000000    -0.099000000     1.772000000
O     2.552000000     4.828000000    -1.653000000
H     2.622000000     5.633000000    -1.141000000
H     1.699000000     4.465000000    -1.414000000
O     0.793000000     0.944000000    -5.840000000
H    -0.097000000     0.603000000    -5.750000000
H     0.703000000     1.697000000    -6.423000000
O    -2.862000000     3.810000000     4.326000000
H    -2.586000000     2.912000000     4.141000000
H    -2.291000000     4.093000000     5.040000000
O     2.058000000     2.873000000     2.377000000
H     1.222000000     3.030000000     1.938000000
H     2.405000000     2.087000000     1.956000000
O    -3.001000000    -6.294000000     4.028000000
H    -2.748000000    -5.788000000     3.256000000
H    -3.823000000    -5.898000000     4.315000000
O    -1.546000000     3.532000000    -3.187000000
H    -1.400000000     4.293000000    -3.749000000
H    -0.936000000     3.652000000    -2.459000000
O    -2.674000000     1.286000000     3.675000000
H    -2.157000000     0.550000000     4.004000000
H    -2.547000000     1.263000000     2.727000000
O     3.726000000     2.179000000     4.582000000
H     4.606000000     2.550000000     4.535000000
H     3.348000000     2.346000000     3.719000000
