161
-3017.54519
C    -0.855000000    -0.412000000     1.132000000
H    -1.579000000    -0.577000000     1.925000000
C    -1.260000000    -0.211000000    -0.151000000
H    -2.329000000    -0.218000000    -0.345000000
C    -0.370000000     0.138000000    -1.152000000
C    -0.888000000     0.261000000    -2.567000000
H    -0.250000000     0.940000000    -3.137000000
H    -0.994000000    -0.689000000    -3.095000000
H    -1.895000000     0.681000000    -2.588000000
C     0.937000000     0.304000000    -0.845000000
H     1.632000000     0.509000000    -1.656000000
C     1.376000000     0.150000000     0.455000000
H     2.429000000     0.344000000     0.641000000
C     0.479000000    -0.121000000     1.497000000
C     1.023000000    -0.299000000     2.922000000
O     2.178000000    -0.711000000     3.038000000
O     0.358000000    -0.095000000     3.921000000
O    -5.106000000     4.282000000    -1.224000000
H    -5.872000000     4.791000000    -1.489000000
H    -4.669000000     4.059000000    -2.046000000
O     5.311000000     1.491000000    -2.032000000
H     4.641000000     1.111000000    -1.463000000
H     5.572000000     0.771000000    -2.606000000
O    -4.033000000     0.386000000     3.588000000
H    -4.465000000     0.929000000     2.929000000
H    -4.197000000    -0.513000000     3.303000000
O     0.412000000     4.384000000     5.404000000
H     0.985000000     5.108000000     5.656000000
H     0.904000000     3.597000000     5.636000000
O     1.603000000     1.739000000     5.350000000
H     2.441000000     1.704000000     4.887000000
H     1.146000000     0.943000000     5.077000000
O    -6.937000000    -1.025000000     1.823000000
H    -6.634000000    -1.819000000     2.264000000
H    -6.278000000    -0.860000000     1.148000000
O     4.851000000    -1.676000000    -1.536000000
H     4.996000000    -2.592000000    -1.302000000
H     5.699000000    -1.373000000    -1.861000000
O    -3.771000000    -2.432000000     0.967000000
H    -4.155000000    -1.617000000     0.646000000
H    -2.960000000    -2.527000000     0.467000000
O     3.187000000    -0.982000000     5.605000000
H     3.040000000    -0.662000000     4.715000000
H     4.133000000    -0.907000000     5.734000000
O    -2.827000000    -3.393000000     6.363000000
H    -3.122000000    -3.024000000     5.531000000
H    -1.914000000    -3.116000000     6.437000000
O     3.273000000    -5.732000000     2.909000000
H     3.106000000    -5.972000000     1.998000000
H     3.128000000    -4.786000000     2.939000000
O    -3.799000000     0.200000000    -4.453000000
H    -4.260000000     0.520000000    -5.229000000
H    -2.878000000     0.400000000    -4.623000000
O     0.691000000    -4.867000000    -3.113000000
H     1.252000000    -4.135000000    -2.858000000
H     1.175000000    -5.307000000    -3.812000000
O    -5.082000000    -0.145000000     0.147000000
H    -5.230000000     0.762000000     0.413000000
H    -5.173000000    -0.134000000    -0.806000000
O     0.216000000     4.040000000    -4.500000000
H     0.879000000     3.882000000    -5.172000000
H     0.660000000     4.582000000    -3.848000000
O    -3.711000000     4.265000000    -3.451000000
H    -4.078000000     5.091000000    -3.764000000
H    -3.690000000     3.703000000    -4.225000000
O     6.614000000    -0.241000000     0.738000000
H     6.096000000    -0.714000000     1.389000000
H     6.814000000     0.598000000     1.155000000
O    -2.077000000     2.694000000    -5.161000000
H    -1.649000000     1.952000000    -5.587000000
H    -1.362000000     3.180000000    -4.751000000
O    -5.756000000    -0.281000000    -2.570000000
H    -5.063000000    -0.021000000    -3.177000000
H    -6.531000000     0.192000000    -2.874000000
O    -1.312000000     0.528000000    -6.393000000
H    -0.554000000    -0.044000000    -6.506000000
H    -1.858000000     0.358000000    -7.160000000
O    -3.963000000     0.241000000     6.570000000
H    -4.427000000    -0.555000000     6.310000000
H    -3.301000000     0.365000000     5.889000000
O     0.626000000     5.079000000    -1.428000000
H    -0.197000000     5.562000000    -1.506000000
H     0.472000000     4.456000000    -0.718000000
O    -3.250000000    -5.360000000     1.510000000
H    -3.364000000    -5.230000000     0.568000000
H    -3.414000000    -4.498000000     1.892000000
O    -7.204000000    -2.553000000    -1.711000000
H    -6.443000000    -2.019000000    -1.482000000
H    -7.955000000    -1.982000000    -1.546000000
O     1.821000000     2.446000000     8.187000000
H     0.877000000     2.350000000     8.318000000
H     1.920000000     2.566000000     7.243000000
O    -2.043000000     5.051000000    -1.387000000
H    -2.375000000     4.474000000    -2.075000000
H    -2.528000000     5.868000000    -1.506000000
O     2.519000000    -2.371000000     7.959000000
H     1.606000000    -2.658000000     7.986000000
H     2.614000000    -1.956000000     7.101000000
O    -4.724000000     2.414000000     1.275000000
H    -4.761000000     3.004000000     0.523000000
H    -4.451000000     2.971000000     2.004000000
O    -1.711000000    -2.783000000    -6.715000000
H    -0.884000000    -2.408000000    -6.412000000
H    -2.151000000    -3.069000000    -5.914000000
O     3.006000000    -2.984000000     2.078000000
H     2.586000000    -3.199000000     1.245000000
H     2.527000000    -2.219000000     2.397000000
O     0.082000000    -2.199000000     5.575000000
H     0.064000000    -1.488000000     4.935000000
H     0.888000000    -2.677000000     5.379000000
O     1.262000000    -3.406000000    -0.121000000
H     2.035000000    -3.937000000    -0.312000000
H     1.307000000    -2.683000000    -0.746000000
O    -1.810000000     1.179000000     4.953000000
H    -1.018000000     1.131000000     4.418000000
H    -2.504000000     0.847000000     4.384000000
O    -2.230000000     4.103000000     4.768000000
H    -1.388000000     4.551000000     4.853000000
H    -2.019000000     3.175000000     4.872000000
O    -3.066000000    -2.659000000    -4.156000000
H    -3.898000000    -3.040000000    -4.436000000
H    -3.175000000    -1.718000000    -4.293000000
O     2.941000000    -0.945000000    -5.208000000
H     2.319000000    -1.073000000    -5.924000000
H     3.795000000    -1.133000000    -5.597000000
O    -1.908000000    -3.830000000    -2.003000000
H    -2.239000000    -3.339000000    -2.755000000
H    -0.985000000    -3.984000000    -2.205000000
O     3.714000000     1.260000000     3.768000000
H     3.422000000     0.500000000     3.265000000
H     4.444000000     1.616000000     3.262000000
O     4.634000000     4.448000000    -2.795000000
H     4.968000000     3.636000000    -2.415000000
H     4.814000000     4.365000000    -3.732000000
O     5.386000000    -1.444000000     2.636000000
H     4.585000000    -1.943000000     2.479000000
H     5.427000000    -1.349000000     3.588000000
O     5.272000000     3.877000000     1.758000000
H     5.728000000     4.491000000     2.334000000
H     4.349000000     3.964000000     1.997000000
O    -0.359000000    -3.555000000     2.528000000
H     0.320000000    -3.427000000     1.865000000
H     0.106000000    -3.928000000     3.277000000
O     6.091000000    -1.016000000     5.312000000
H     6.564000000    -1.779000000     5.644000000
H     6.451000000    -0.278000000     5.803000000
O    -0.213000000    -1.076000000     7.849000000
H    -0.818000000    -1.790000000     8.052000000
H     0.134000000    -1.295000000     6.985000000
O    -2.923000000    -3.081000000     3.625000000
H    -3.441000000    -2.717000000     2.907000000
H    -2.023000000    -3.068000000     3.301000000
O    -0.733000000     3.533000000     0.684000000
H    -1.566000000     3.911000000     0.403000000
H    -0.532000000     2.875000000     0.019000000
O     2.754000000    -2.775000000    -2.991000000
H     2.907000000    -2.321000000    -3.820000000
H     3.463000000    -2.477000000    -2.421000000
O    -0.902000000     1.733000000     7.602000000
H    -1.441000000     1.811000000     6.815000000
H    -0.658000000     0.808000000     7.634000000
