161
-3045.87780
C    -1.034000000    -0.506000000     1.052000000
H    -1.867000000    -0.886000000     1.636000000
C    -1.073000000     0.718000000     0.316000000
H    -1.993000000     1.293000000     0.258000000
C    -0.060000000     1.171000000    -0.506000000
C    -0.128000000     2.399000000    -1.382000000
H    -0.559000000     2.091000000    -2.337000000
H    -0.650000000     3.270000000    -0.980000000
H     0.882000000     2.797000000    -1.499000000
C     1.098000000     0.329000000    -0.627000000
H     1.904000000     0.586000000    -1.309000000
C     1.140000000    -0.902000000     0.064000000
H     2.032000000    -1.517000000    -0.021000000
C     0.057000000    -1.369000000     0.869000000
C     0.068000000    -2.792000000     1.356000000
O     1.153000000    -3.301000000     1.623000000
O    -0.966000000    -3.373000000     1.493000000
O    -5.074000000     3.032000000    -3.003000000
H    -5.134000000     3.500000000    -2.170000000
H    -4.703000000     2.180000000    -2.772000000
O    -0.629000000    -5.676000000     0.069000000
H    -0.738000000    -4.872000000     0.577000000
H    -1.508000000    -6.052000000     0.024000000
O    -2.151000000     4.737000000    -3.629000000
H    -1.260000000     4.773000000    -3.279000000
H    -2.245000000     3.840000000    -3.951000000
O    -3.068000000     4.631000000     1.596000000
H    -3.440000000     5.372000000     1.118000000
H    -2.377000000     5.016000000     2.135000000
O    -3.899000000    -1.967000000    -2.963000000
H    -4.498000000    -2.685000000    -3.166000000
H    -3.499000000    -2.216000000    -2.130000000
O     2.014000000    -2.024000000     3.715000000
H     1.817000000    -2.491000000     2.903000000
H     2.214000000    -1.130000000     3.435000000
O     3.737000000     1.345000000     0.336000000
H     3.473000000     0.471000000     0.050000000
H     4.528000000     1.198000000     0.855000000
O     3.835000000    -3.509000000     5.368000000
H     3.129000000    -3.144000000     4.835000000
H     4.564000000    -2.899000000     5.250000000
O    -4.207000000     5.678000000    -1.724000000
H    -5.007000000     5.984000000    -2.151000000
H    -3.663000000     5.351000000    -2.440000000
O     2.555000000    -4.589000000    -0.182000000
H     3.392000000    -4.562000000     0.283000000
H     1.966000000    -4.061000000     0.357000000
O    -2.485000000    -2.828000000    -0.922000000
H    -1.978000000    -2.853000000    -0.110000000
H    -1.851000000    -2.578000000    -1.593000000
O     1.819000000     1.549000000    -5.000000000
H     1.763000000     1.802000000    -5.922000000
H     0.982000000     1.122000000    -4.818000000
O     4.645000000    -4.605000000     1.637000000
H     3.888000000    -4.928000000     2.127000000
H     5.357000000    -4.592000000     2.277000000
O    -0.798000000     0.043000000    -4.530000000
H    -0.751000000    -0.684000000    -5.151000000
H    -0.831000000    -0.378000000    -3.670000000
O     1.700000000    -4.471000000    -3.486000000
H     1.890000000    -3.739000000    -2.899000000
H     1.338000000    -5.148000000    -2.915000000
O     5.066000000    -2.666000000    -0.381000000
H     5.786000000    -2.879000000    -0.975000000
H     4.857000000    -3.495000000     0.048000000
O     1.220000000    -6.777000000    -1.936000000
H     0.805000000    -6.270000000    -1.238000000
H     2.084000000    -7.000000000    -1.590000000
O     4.999000000    -0.968000000     2.087000000
H     5.554000000    -1.357000000     2.763000000
H     4.879000000    -1.665000000     1.443000000
O    -2.199000000    -5.143000000     6.318000000
H    -1.676000000    -4.815000000     5.587000000
H    -2.770000000    -5.804000000     5.928000000
O    -5.792000000    -4.515000000     2.028000000
H    -5.749000000    -5.456000000     2.201000000
H    -4.877000000    -4.234000000     2.006000000
O    -5.981000000    -2.474000000    -0.193000000
H    -6.175000000    -2.486000000     0.745000000
H    -5.025000000    -2.492000000    -0.240000000
O    -0.251000000    -2.232000000    -2.787000000
H     0.697000000    -2.220000000    -2.655000000
H    -0.361000000    -2.438000000    -3.716000000
O     2.570000000     4.050000000    -3.147000000
H     2.907000000     3.717000000    -2.315000000
H     2.386000000     3.265000000    -3.662000000
O     0.479000000     7.593000000     0.486000000
H     0.498000000     6.933000000     1.178000000
H    -0.244000000     7.325000000    -0.081000000
O    -1.942000000     6.469000000    -0.585000000
H    -1.428000000     6.241000000    -1.360000000
H    -2.852000000     6.372000000    -0.865000000
O    -3.706000000    -5.502000000    -1.351000000
H    -3.823000000    -5.797000000    -2.255000000
H    -3.508000000    -4.569000000    -1.428000000
O    -2.281000000     2.483000000    -5.209000000
H    -1.866000000     1.624000000    -5.138000000
H    -1.770000000     2.942000000    -5.876000000
O    -0.520000000    -4.033000000     4.713000000
H    -0.294000000    -3.206000000     5.139000000
H    -0.378000000    -3.868000000     3.781000000
O    -4.029000000     0.795000000    -2.356000000
H    -4.148000000    -0.155000000    -2.387000000
H    -3.080000000     0.916000000    -2.323000000
O     2.114000000    -5.225000000     3.280000000
H     1.568000000    -4.602000000     2.799000000
H     1.952000000    -5.023000000     4.201000000
O     0.227000000     5.510000000    -2.429000000
H     1.018000000     5.695000000    -2.936000000
H     0.521000000     4.922000000    -1.733000000
O     3.424000000     4.113000000    -0.083000000
H     3.524000000     3.162000000    -0.039000000
H     3.928000000     4.442000000     0.661000000
O    -2.960000000    -7.406000000     1.928000000
H    -3.763000000    -7.798000000     1.585000000
H    -2.493000000    -8.134000000     2.337000000
O    -3.816000000     2.613000000     3.307000000
H    -3.342000000     3.158000000     2.680000000
H    -3.962000000     3.186000000     4.060000000
O    -3.111000000     0.164000000     3.963000000
H    -3.566000000     0.842000000     3.464000000
H    -2.199000000     0.228000000     3.679000000
O    -0.405000000     1.451000000     3.480000000
H    -0.023000000     1.228000000     2.631000000
H    -1.026000000     2.153000000     3.286000000
O     3.408000000     7.031000000    -3.034000000
H     3.280000000     6.167000000    -2.643000000
H     3.618000000     7.601000000    -2.294000000
O     2.361000000     0.540000000     2.880000000
H     3.061000000     0.848000000     3.456000000
H     2.601000000     0.870000000     2.014000000
O     3.857000000    -0.403000000    -4.306000000
H     4.585000000     0.211000000    -4.406000000
H     3.158000000    -0.036000000    -4.848000000
O     2.762000000    -2.131000000    -2.411000000
H     3.157000000    -1.679000000    -3.156000000
H     3.506000000    -2.441000000    -1.895000000
O    -0.357000000    -1.522000000     5.076000000
H     0.422000000    -1.411000000     4.530000000
H    -0.441000000    -0.691000000     5.544000000
O     0.868000000    -7.218000000     1.972000000
H     1.417000000    -6.559000000     2.396000000
H     0.428000000    -6.745000000     1.265000000
O    -0.867000000     1.224000000     6.376000000
H    -0.498000000     2.044000000     6.706000000
H    -1.110000000     1.419000000     5.471000000
O    -5.846000000    -1.087000000     3.940000000
H    -4.931000000    -1.352000000     3.844000000
H    -5.805000000    -0.246000000     4.394000000
O    -2.887000000    -4.703000000     2.221000000
H    -2.067000000    -4.274000000     1.977000000
H    -2.751000000    -5.624000000     1.999000000
O    -5.228000000     2.802000000     0.696000000
H    -4.433000000     3.249000000     0.406000000
H    -5.043000000     2.547000000     1.600000000
O     5.475000000     4.672000000    -2.148000000
H     4.840000000     4.799000000    -1.443000000
H     5.944000000     3.873000000    -1.906000000
O    -3.442000000    -2.556000000     4.048000000
H    -2.515000000    -2.478000000     4.275000000
H    -3.507000000    -3.398000000     3.598000000
