161
-3058.01571
C    -0.123000000    -1.390000000     0.300000000
H    -0.267000000    -2.459000000     0.434000000
C    -1.161000000    -0.474000000     0.549000000
H    -2.088000000    -0.863000000     0.963000000
C    -0.877000000     0.869000000     0.289000000
C    -1.880000000     1.905000000     0.535000000
H    -2.106000000     1.934000000     1.603000000
H    -1.695000000     2.875000000     0.070000000
H    -2.791000000     1.563000000     0.039000000
C     0.375000000     1.188000000    -0.220000000
H     0.603000000     2.229000000    -0.438000000
C     1.362000000     0.282000000    -0.510000000
H     2.302000000     0.537000000    -0.992000000
C     1.104000000    -1.075000000    -0.300000000
C     2.161000000    -2.115000000    -0.680000000
O     2.978000000    -1.790000000    -1.442000000
O     2.100000000    -3.221000000    -0.194000000
O    -4.189000000     6.214000000    -0.450000000
H    -4.689000000     6.921000000    -0.041000000
H    -4.499000000     6.195000000    -1.355000000
O     3.071000000     4.379000000     2.423000000
H     2.525000000     5.105000000     2.119000000
H     3.793000000     4.344000000     1.796000000
O     4.975000000    -3.528000000    -2.721000000
H     4.348000000    -2.924000000    -2.325000000
H     5.080000000    -3.210000000    -3.618000000
O     5.202000000    -6.029000000    -3.798000000
H     4.583000000    -5.381000000    -3.461000000
H     6.052000000    -5.592000000    -3.758000000
O     5.857000000    -6.539000000     1.260000000
H     6.673000000    -6.538000000     0.760000000
H     5.465000000    -5.684000000     1.080000000
O     1.983000000    -4.966000000    -2.510000000
H     2.431000000    -4.565000000    -1.766000000
H     1.431000000    -4.267000000    -2.862000000
O     1.015000000    -7.888000000    -0.707000000
H     0.901000000    -6.945000000    -0.588000000
H     1.807000000    -8.098000000    -0.211000000
O     2.695000000    -1.452000000    -5.886000000
H     3.536000000    -1.883000000    -6.039000000
H     2.457000000    -1.083000000    -6.737000000
O    -4.229000000    -0.523000000    -3.069000000
H    -4.501000000    -0.786000000    -3.948000000
H    -4.158000000    -1.345000000    -2.584000000
O    -1.200000000    -1.543000000     3.982000000
H    -1.029000000    -1.409000000     4.914000000
H    -0.554000000    -0.994000000     3.538000000
O     6.154000000    -2.955000000     2.350000000
H     5.679000000    -3.126000000     1.537000000
H     7.065000000    -2.842000000     2.077000000
O    -1.231000000     5.617000000    -1.861000000
H    -1.753000000     5.393000000    -2.632000000
H    -1.511000000     4.992000000    -1.192000000
O     1.396000000    -2.061000000    -3.577000000
H     1.997000000    -1.894000000    -2.851000000
H     1.898000000    -1.837000000    -4.360000000
O     3.677000000     0.172000000    -3.841000000
H     2.956000000    -0.033000000    -4.436000000
H     3.623000000    -0.498000000    -3.159000000
O     5.259000000     1.662000000     2.094000000
H     5.989000000     2.166000000     2.455000000
H     4.992000000     2.151000000     1.316000000
O    -0.469000000     0.071000000    -4.458000000
H    -0.712000000    -0.179000000    -5.350000000
H     0.158000000    -0.598000000    -4.184000000
O    -1.355000000    -3.891000000    -3.795000000
H    -2.115000000    -3.378000000    -3.523000000
H    -0.602000000    -3.378000000    -3.500000000
O     1.759000000    -5.413000000     2.997000000
H     2.398000000    -4.705000000     2.911000000
H     1.204000000    -5.147000000     3.730000000
O     4.855000000    -0.893000000     0.201000000
H     4.784000000     0.048000000     0.366000000
H     4.264000000    -1.052000000    -0.535000000
O    -4.481000000    -0.934000000     2.314000000
H    -5.008000000    -0.137000000     2.268000000
H    -3.604000000    -0.628000000     2.545000000
O    -5.452000000     1.566000000     2.120000000
H    -5.256000000     2.360000000     1.623000000
H    -5.004000000     1.691000000     2.957000000
O    -2.680000000     1.464000000    -3.684000000
H    -1.843000000     1.073000000    -3.937000000
H    -3.154000000     0.755000000    -3.250000000
O    -1.264000000     5.734000000     2.359000000
H    -1.789000000     6.472000000     2.050000000
H    -1.869000000     5.215000000     2.889000000
O    -5.198000000    -1.965000000     0.020000000
H    -4.886000000    -1.790000000     0.908000000
H    -5.759000000    -1.217000000    -0.187000000
O     5.405000000    -2.569000000    -5.158000000
H     6.128000000    -1.943000000    -5.197000000
H     5.403000000    -2.986000000    -6.020000000
O    -2.746000000     4.223000000    -3.718000000
H    -2.369000000     4.048000000    -4.581000000
H    -2.952000000     3.356000000    -3.367000000
O     0.364000000    -5.333000000     0.349000000
H     0.146000000    -5.488000000     1.268000000
H     0.997000000    -4.616000000     0.370000000
O     1.589000000     5.601000000    -1.313000000
H     1.467000000     5.230000000    -0.439000000
H     0.702000000     5.778000000    -1.625000000
O    -3.888000000    -3.262000000    -2.069000000
H    -3.081000000    -3.647000000    -1.725000000
H    -4.396000000    -3.035000000    -1.290000000
O    -3.395000000     5.214000000     3.969000000
H    -3.924000000     6.009000000     4.041000000
H    -3.999000000     4.504000000     4.187000000
O     4.710000000    -4.095000000     0.182000000
H     3.790000000    -3.860000000     0.299000000
H     4.935000000    -3.757000000    -0.685000000
O     2.697000000     0.179000000     2.831000000
H     3.543000000    -0.056000000     3.212000000
H     2.669000000    -0.294000000     2.000000000
O     4.863000000     3.306000000    -0.064000000
H     4.459000000     3.570000000    -0.890000000
H     5.465000000     4.019000000     0.147000000
O     3.783000000    -7.799000000     0.165000000
H     3.829000000    -7.126000000    -0.514000000
H     4.557000000    -7.647000000     0.706000000
O    -2.066000000    -4.813000000    -0.789000000
H    -2.082000000    -5.672000000    -1.209000000
H    -1.174000000    -4.726000000    -0.454000000
O     2.846000000     3.307000000    -4.174000000
H     3.408000000     2.541000000    -4.056000000
H     1.998000000     2.944000000    -4.432000000
O     1.215000000     2.719000000     3.355000000
H     1.734000000     1.919000000     3.280000000
H     1.815000000     3.419000000     3.097000000
O    -3.512000000    -4.936000000     2.110000000
H    -2.681000000    -4.597000000     2.444000000
H    -3.365000000    -5.046000000     1.170000000
O    -5.384000000     1.861000000    -1.765000000
H    -5.605000000     1.184000000    -1.125000000
H    -4.851000000     1.407000000    -2.418000000
O    -1.467000000     7.777000000    -0.218000000
H    -1.364000000     7.057000000    -0.839000000
H    -1.924000000     7.387000000     0.527000000
O     0.725000000     4.476000000     1.035000000
H    -0.064000000     4.791000000     1.476000000
H     0.795000000     3.558000000     1.296000000
O    -5.528000000    -3.679000000     3.735000000
H    -5.052000000    -4.228000000     3.111000000
H    -5.203000000    -2.794000000     3.572000000
O    -4.778000000     3.661000000     0.571000000
H    -4.617000000     3.261000000    -0.284000000
H    -4.473000000     4.563000000     0.475000000
O    -3.637000000     1.322000000     4.161000000
H    -4.003000000     1.924000000     4.808000000
H    -2.760000000     1.663000000     3.985000000
O     1.757000000    -2.352000000     3.824000000
H     1.259000000    -1.560000000     3.622000000
H     2.618000000    -2.032000000     4.093000000
O    -6.580000000     0.364000000     0.079000000
H    -6.238000000     0.701000000     0.907000000
H    -7.527000000     0.324000000     0.210000000
O    -1.273000000     2.545000000     4.254000000
H    -0.444000000     2.347000000     3.819000000
H    -1.020000000     2.868000000     5.119000000
O    -1.193000000    -4.062000000     3.354000000
H    -1.307000000    -3.116000000     3.444000000
H    -0.935000000    -4.355000000     4.228000000
