161
-3032.14063
C     0.716000000    -1.248000000     0.474000000
H     1.328000000    -2.029000000     0.918000000
C     0.957000000     0.109000000     0.878000000
H     1.763000000     0.221000000     1.600000000
C     0.225000000     1.137000000     0.308000000
C     0.537000000     2.626000000     0.654000000
H     1.062000000     3.193000000    -0.118000000
H    -0.373000000     3.199000000     0.845000000
H     1.213000000     2.741000000     1.504000000
C    -0.860000000     0.863000000    -0.535000000
H    -1.346000000     1.696000000    -1.037000000
C    -1.064000000    -0.431000000    -0.877000000
H    -1.942000000    -0.602000000    -1.495000000
C    -0.324000000    -1.514000000    -0.456000000
C    -0.530000000    -2.954000000    -0.860000000
O    -1.588000000    -3.163000000    -1.378000000
O     0.224000000    -3.848000000    -0.417000000
O     4.615000000    -4.117000000    -2.088000000
H     5.306000000    -4.299000000    -1.451000000
H     4.989000000    -3.447000000    -2.661000000
O     3.018000000     7.398000000     1.379000000
H     3.555000000     7.345000000     2.170000000
H     3.609000000     7.143000000     0.671000000
O    -3.239000000     4.217000000     4.253000000
H    -3.304000000     4.945000000     4.871000000
H    -4.013000000     3.683000000     4.430000000
O     0.910000000     5.746000000     3.520000000
H     1.361000000     6.577000000     3.674000000
H     0.378000000     5.904000000     2.740000000
O    -2.239000000    -1.926000000    -3.902000000
H    -2.841000000    -2.615000000    -4.184000000
H    -2.153000000    -2.056000000    -2.957000000
O     0.061000000     7.689000000    -1.936000000
H     0.852000000     7.902000000    -2.430000000
H    -0.037000000     6.742000000    -2.038000000
O     3.508000000     3.486000000    -4.428000000
H     2.666000000     3.097000000    -4.663000000
H     3.452000000     3.628000000    -3.483000000
O     2.026000000    -4.801000000    -3.380000000
H     1.454000000    -5.216000000    -2.734000000
H     2.800000000    -4.539000000    -2.882000000
O     2.892000000    -3.970000000     5.123000000
H     2.227000000    -3.394000000     4.745000000
H     3.155000000    -4.538000000     4.399000000
O     2.941000000    -4.585000000     0.700000000
H     2.056000000    -4.460000000     0.357000000
H     3.513000000    -4.427000000    -0.050000000
O    -3.098000000    -8.009000000    -1.931000000
H    -3.210000000    -7.991000000    -0.980000000
H    -2.381000000    -7.398000000    -2.099000000
O    -0.598000000    -6.116000000     1.093000000
H    -0.116000000    -6.772000000     0.590000000
H    -0.545000000    -5.320000000     0.564000000
O    -1.017000000    -6.021000000    -2.786000000
H    -1.330000000    -5.299000000    -2.240000000
H    -0.956000000    -5.648000000    -3.665000000
O     0.279000000     5.027000000    -1.963000000
H    -0.313000000     4.401000000    -1.547000000
H     0.295000000     4.768000000    -2.884000000
O     3.458000000     4.616000000     0.129000000
H     3.369000000     4.351000000    -0.787000000
H     2.638000000     5.067000000     0.329000000
O    -3.103000000     4.400000000     1.332000000
H    -3.950000000     4.796000000     1.126000000
H    -3.065000000     4.401000000     2.289000000
O    -3.775000000    -3.250000000     0.201000000
H    -4.560000000    -3.282000000    -0.345000000
H    -3.050000000    -3.217000000    -0.423000000
O     1.156000000    -2.077000000    -3.858000000
H     0.277000000    -2.245000000    -4.199000000
H     1.540000000    -2.947000000    -3.746000000
O    -4.164000000    -3.694000000    -4.554000000
H    -4.325000000    -4.372000000    -5.209000000
H    -5.037000000    -3.417000000    -4.276000000
O    -4.403000000    -0.216000000     1.218000000
H    -3.881000000     0.039000000     1.978000000
H    -3.937000000    -0.965000000     0.847000000
O    -1.125000000     0.520000000    -4.704000000
H    -1.612000000    -0.109000000    -4.171000000
H    -1.536000000     0.471000000    -5.567000000
O    -3.532000000    -6.632000000     0.758000000
H    -3.018000000    -7.431000000     0.879000000
H    -2.915000000    -6.005000000     0.383000000
O     3.918000000    -2.700000000     2.641000000
H     3.551000000    -3.354000000     2.046000000
H     4.138000000    -3.191000000     3.432000000
O     5.486000000     5.579000000     1.979000000
H     6.370000000     5.297000000     1.745000000
H     4.918000000     5.136000000     1.349000000
O     2.255000000     3.376000000     3.998000000
H     1.551000000     3.941000000     3.678000000
H     2.825000000     3.962000000     4.495000000
O    -1.143000000    -0.289000000     4.296000000
H    -0.616000000     0.388000000     4.721000000
H    -1.793000000     0.197000000     3.789000000
O     3.496000000     2.790000000    -1.941000000
H     3.101000000     2.020000000    -2.351000000
H     3.896000000     2.455000000    -1.139000000
O    -0.537000000    -5.048000000     3.512000000
H     0.076000000    -4.341000000     3.311000000
H    -0.580000000    -5.563000000     2.706000000
O     1.949000000     0.036000000    -2.306000000
H     1.782000000    -0.821000000    -2.696000000
H     1.234000000     0.158000000    -1.680000000
O     4.778000000    -0.950000000     0.438000000
H     4.353000000    -1.391000000     1.173000000
H     5.688000000    -0.842000000     0.716000000
O    -3.285000000     1.106000000     3.496000000
H    -3.648000000     1.340000000     4.351000000
H    -3.380000000     1.900000000     2.970000000
O     4.585000000     2.493000000     2.330000000
H     4.154000000     2.568000000     3.181000000
H     4.074000000     3.059000000     1.751000000
O     3.282000000    -7.840000000     1.026000000
H     2.849000000    -8.691000000     0.968000000
H     3.084000000    -7.413000000     0.192000000
O    -2.376000000     4.055000000    -1.319000000
H    -2.956000000     3.749000000    -2.016000000
H    -2.935000000     4.094000000    -0.543000000
O     3.600000000    -5.638000000     3.061000000
H     4.256000000    -6.332000000     3.000000000
H     3.334000000    -5.479000000     2.156000000
O    -1.475000000     3.216000000    -4.975000000
H    -0.751000000     3.743000000    -5.313000000
H    -1.071000000     2.382000000    -4.733000000
O     0.189000000     1.547000000     5.699000000
H     0.948000000     1.295000000     6.225000000
H     0.561000000     1.842000000     4.868000000
O     0.860000000    -2.170000000     4.400000000
H     1.602000000    -1.565000000     4.372000000
H     0.090000000    -1.609000000     4.311000000
O    -1.802000000     7.894000000     3.120000000
H    -1.556000000     7.245000000     2.461000000
H    -1.116000000     8.560000000     3.068000000
O    -0.700000000     5.900000000     1.263000000
H    -0.124000000     5.622000000     0.551000000
H    -1.523000000     5.439000000     1.101000000
O    -4.572000000     0.810000000    -5.955000000
H    -4.664000000     1.024000000    -5.026000000
H    -4.414000000    -0.134000000    -5.969000000
O     0.766000000    -8.013000000    -2.585000000
H     0.444000000    -8.890000000    -2.791000000
H     0.142000000    -7.423000000    -3.008000000
O     2.930000000    -0.357000000     3.788000000
H     3.430000000    -1.009000000     3.297000000
H     3.368000000     0.473000000     3.599000000
O     1.591000000     1.094000000    -4.947000000
H     0.649000000     0.946000000    -4.860000000
H     1.942000000     0.926000000    -4.073000000
O    -1.472000000    -5.032000000    -5.292000000
H    -1.078000000    -4.299000000    -5.765000000
H    -2.279000000    -5.220000000    -5.772000000
O    -5.149000000     1.660000000    -3.211000000
H    -5.107000000     1.726000000    -2.257000000
H    -4.938000000     2.540000000    -3.522000000
O     5.464000000     0.983000000    -1.226000000
H     5.019000000     0.162000000    -1.014000000
H     6.375000000     0.834000000    -0.972000000
O    -3.712000000     4.026000000    -3.671000000
H    -3.793000000     4.943000000    -3.935000000
H    -3.039000000     3.668000000    -4.249000000
