161
-3033.84329
C     0.883000000    -1.179000000     0.456000000
H     1.628000000    -1.867000000     0.848000000
C     0.367000000    -0.119000000     1.293000000
H     0.600000000    -0.084000000     2.354000000
C    -0.403000000     0.932000000     0.762000000
C    -0.879000000     2.144000000     1.560000000
H    -0.110000000     2.422000000     2.284000000
H    -0.909000000     3.058000000     0.962000000
H    -1.861000000     1.971000000     2.003000000
C    -0.603000000     0.940000000    -0.635000000
H    -1.040000000     1.756000000    -1.203000000
C    -0.280000000    -0.197000000    -1.388000000
H    -0.475000000    -0.196000000    -2.458000000
C     0.398000000    -1.339000000    -0.862000000
C     0.809000000    -2.460000000    -1.782000000
O     0.489000000    -2.378000000    -2.934000000
O     1.382000000    -3.406000000    -1.266000000
O    -5.418000000     1.735000000    -4.128000000
H    -5.354000000     2.646000000    -4.416000000
H    -4.517000000     1.413000000    -4.151000000
O     3.182000000     0.695000000     3.356000000
H     2.900000000     0.458000000     4.240000000
H     3.405000000    -0.140000000     2.945000000
O     3.843000000    -1.852000000     2.620000000
H     4.674000000    -2.173000000     2.969000000
H     3.224000000    -2.563000000     2.784000000
O    -0.310000000     6.252000000     0.104000000
H     0.509000000     5.840000000    -0.172000000
H    -0.117000000     6.609000000     0.971000000
O    -4.161000000     3.645000000    -0.589000000
H    -3.522000000     4.147000000    -0.083000000
H    -4.305000000     2.852000000    -0.073000000
O     1.787000000    -1.728000000    -5.120000000
H     2.069000000    -0.831000000    -4.943000000
H     1.254000000    -1.966000000    -4.361000000
O     4.277000000     0.081000000     0.600000000
H     5.231000000     0.040000000     0.527000000
H     4.065000000    -0.537000000     1.300000000
O     3.795000000    -3.416000000    -4.073000000
H     3.789000000    -3.821000000    -3.205000000
H     3.032000000    -2.838000000    -4.073000000
O    -3.280000000    -4.043000000    -2.349000000
H    -3.982000000    -3.612000000    -2.837000000
H    -3.506000000    -3.901000000    -1.429000000
O     0.981000000    -5.315000000    -3.152000000
H     0.116000000    -5.274000000    -3.561000000
H     0.992000000    -4.579000000    -2.540000000
O    -1.979000000     3.462000000    -3.406000000
H    -2.512000000     3.460000000    -2.611000000
H    -2.124000000     2.599000000    -3.794000000
O     3.963000000    -3.181000000    -1.375000000
H     3.029000000    -3.066000000    -1.202000000
H     4.234000000    -3.876000000    -0.775000000
O    -1.535000000    -1.291000000    -5.717000000
H    -1.294000000    -2.128000000    -5.321000000
H    -0.935000000    -1.195000000    -6.457000000
O     0.258000000    -4.473000000     0.754000000
H     0.790000000    -4.163000000     0.020000000
H    -0.585000000    -4.699000000     0.360000000
O    -1.439000000    -3.617000000    -4.155000000
H    -2.147000000    -3.924000000    -3.588000000
H    -0.769000000    -3.300000000    -3.549000000
O     2.494000000     0.906000000    -1.436000000
H     1.559000000     0.717000000    -1.514000000
H     2.813000000     0.279000000    -0.787000000
O    -2.648000000     0.927000000    -4.429000000
H    -2.740000000     0.864000000    -3.478000000
H    -2.220000000     0.109000000    -4.683000000
O     1.860000000     6.880000000     2.260000000
H     2.089000000     7.400000000     1.490000000
H     2.407000000     6.097000000     2.191000000
O    -3.358000000     0.717000000    -1.724000000
H    -3.380000000    -0.014000000    -1.107000000
H    -4.145000000     1.223000000    -1.524000000
O     6.474000000    -4.118000000    -2.065000000
H     5.778000000    -3.467000000    -1.975000000
H     6.252000000    -4.797000000    -1.428000000
O    -1.570000000     0.431000000     4.315000000
H    -1.962000000    -0.342000000     4.721000000
H    -1.322000000     0.989000000     5.052000000
O    -3.518000000     4.157000000     3.525000000
H    -3.759000000     3.297000000     3.181000000
H    -3.138000000     3.974000000     4.384000000
O     0.356000000     2.304000000    -5.720000000
H     1.135000000     2.164000000    -5.183000000
H     0.616000000     2.025000000    -6.597000000
O     4.348000000     5.131000000     1.256000000
H     4.050000000     4.313000000     1.655000000
H     3.797000000     5.234000000     0.481000000
O     0.582000000    -4.977000000    -6.181000000
H     0.518000000    -4.136000000    -5.729000000
H     1.475000000    -4.997000000    -6.525000000
O     5.042000000    -0.598000000    -2.547000000
H     4.471000000    -1.324000000    -2.296000000
H     4.836000000     0.096000000    -1.921000000
O     2.064000000    -4.170000000     2.753000000
H     1.712000000    -4.747000000     3.430000000
H     1.593000000    -4.418000000     1.958000000
O     2.725000000     2.822000000    -4.322000000
H     2.349000000     3.699000000    -4.251000000
H     2.826000000     2.530000000    -3.416000000
O    -2.647000000    -1.444000000    -0.002000000
H    -2.815000000    -1.083000000     0.868000000
H    -1.693000000    -1.443000000    -0.082000000
O     2.879000000     5.561000000     5.093000000
H     2.525000000     4.707000000     5.340000000
H     2.161000000     6.173000000     5.250000000
O    -2.707000000    -4.545000000     0.688000000
H    -2.367000000    -4.604000000     1.581000000
H    -3.096000000    -3.672000000     0.637000000
O     1.262000000    -8.366000000    -3.201000000
H     1.888000000    -7.662000000    -3.030000000
H     0.406000000    -7.942000000    -3.150000000
O     1.847000000     3.140000000     5.837000000
H     1.971000000     2.293000000     5.408000000
H     2.566000000     3.198000000     6.466000000
O     4.672000000    -5.529000000    -0.413000000
H     3.756000000    -5.807000000    -0.410000000
H     4.964000000    -5.660000000     0.489000000
O     2.619000000    -7.338000000    -0.258000000
H     2.700000000    -8.289000000    -0.183000000
H     2.668000000    -7.168000000    -1.199000000
O    -5.069000000     1.452000000     0.699000000
H    -4.542000000     0.809000000     1.175000000
H    -5.908000000     1.460000000     1.158000000
O     2.873000000     0.458000000     6.404000000
H     1.960000000     0.242000000     6.592000000
H     3.298000000     0.469000000     7.262000000
O    -1.049000000    -6.713000000    -4.587000000
H    -1.698000000    -6.032000000    -4.407000000
H    -0.602000000    -6.414000000    -5.378000000
O     2.199000000    -2.749000000    -7.624000000
H     3.112000000    -2.681000000    -7.904000000
H     2.194000000    -2.391000000    -6.736000000
O    -3.253000000     5.709000000     0.918000000
H    -3.305000000     5.685000000     1.874000000
H    -2.402000000     6.108000000     0.735000000
O    -1.302000000    -3.288000000     2.995000000
H    -1.125000000    -3.012000000     3.894000000
H    -0.436000000    -3.396000000     2.602000000
O     2.255000000     5.048000000    -1.264000000
H     2.921000000     4.388000000    -1.073000000
H     1.922000000     4.809000000    -2.129000000
O     3.002000000     2.768000000     1.459000000
H     3.056000000     2.320000000     2.303000000
H     2.875000000     2.065000000     0.822000000
O     0.767000000    -0.962000000     4.591000000
H     0.656000000    -1.750000000     5.124000000
H    -0.092000000    -0.541000000     4.604000000
O     3.214000000    -6.602000000    -2.937000000
H     3.899000000    -6.314000000    -3.541000000
H     2.501000000    -5.977000000    -3.068000000
O    -3.521000000     0.003000000     2.501000000
H    -2.759000000     0.149000000     3.061000000
H    -4.226000000    -0.223000000     3.108000000
O    -0.774000000     1.821000000     6.535000000
H     0.052000000     2.303000000     6.574000000
H    -1.445000000     2.500000000     6.470000000
O    -0.816000000     5.955000000    -3.222000000
H    -0.916000000     6.238000000    -2.313000000
H    -1.135000000     5.053000000    -3.229000000
