161
-3080.06871
C    -0.024000000    -1.153000000     1.002000000
H    -0.072000000    -1.939000000     1.751000000
C     0.112000000     0.179000000     1.304000000
H     0.302000000     0.373000000     2.356000000
C     0.186000000     1.184000000     0.337000000
C     0.135000000     2.666000000     0.601000000
H    -0.863000000     3.094000000     0.486000000
H     0.455000000     3.033000000     1.578000000
H     0.691000000     3.253000000    -0.133000000
C     0.091000000     0.822000000    -0.981000000
H     0.051000000     1.578000000    -1.760000000
C     0.093000000    -0.518000000    -1.330000000
H    -0.012000000    -0.915000000    -2.337000000
C    -0.105000000    -1.543000000    -0.353000000
C    -0.331000000    -2.993000000    -0.742000000
O    -0.561000000    -3.282000000    -1.879000000
O    -0.151000000    -3.842000000     0.108000000
O    -0.363000000     5.855000000     3.349000000
H     0.535000000     6.141000000     3.181000000
H    -0.284000000     5.228000000     4.068000000
O     3.169000000     0.761000000     3.671000000
H     3.242000000     0.388000000     4.549000000
H     3.198000000     0.004000000     3.086000000
O     1.888000000     5.522000000    -2.022000000
H     2.564000000     5.653000000    -2.686000000
H     1.070000000     5.750000000    -2.465000000
O     0.624000000    -2.280000000     6.567000000
H     0.386000000    -2.901000000     5.879000000
H     0.493000000    -2.764000000     7.382000000
O    -2.117000000     5.192000000     1.102000000
H    -2.007000000     5.911000000     0.480000000
H    -1.463000000     5.360000000     1.780000000
O    -3.057000000     3.940000000    -1.268000000
H    -2.503000000     4.274000000    -0.563000000
H    -3.246000000     3.036000000    -1.016000000
O    -2.461000000    -3.483000000    -5.642000000
H    -3.080000000    -4.202000000    -5.516000000
H    -2.568000000    -2.935000000    -4.864000000
O     3.672000000    -2.036000000     2.949000000
H     3.550000000    -2.139000000     3.893000000
H     3.142000000    -2.733000000     2.562000000
O     0.119000000    -4.541000000    -4.141000000
H    -0.188000000    -4.123000000    -3.336000000
H    -0.582000000    -4.384000000    -4.775000000
O    -4.385000000    -3.259000000    -1.663000000
H    -5.158000000    -2.727000000    -1.478000000
H    -4.352000000    -3.891000000    -0.944000000
O     1.418000000    -6.104000000    -0.051000000
H     1.228000000    -6.838000000    -0.635000000
H     0.655000000    -5.532000000    -0.128000000
O    -2.906000000     1.080000000    -1.480000000
H    -3.254000000     0.502000000    -0.801000000
H    -1.992000000     0.812000000    -1.577000000
O    -5.039000000    -0.198000000    -2.777000000
H    -4.552000000     0.285000000    -2.109000000
H    -5.486000000    -0.893000000    -2.293000000
O     1.750000000    -3.825000000     2.133000000
H     0.926000000    -3.954000000     1.663000000
H     2.321000000    -4.521000000     1.810000000
O    -3.173000000    -5.223000000    -3.279000000
H    -3.543000000    -4.560000000    -2.695000000
H    -3.910000000    -5.499000000    -3.825000000
O    -1.654000000    -4.094000000     2.734000000
H    -1.699000000    -3.939000000     1.790000000
H    -2.185000000    -3.396000000     3.116000000
O    -1.697000000    -5.810000000    -1.133000000
H    -2.211000000    -5.687000000    -1.931000000
H    -1.189000000    -5.003000000    -1.047000000
O     2.885000000     3.016000000    -1.391000000
H     2.021000000     2.929000000    -0.989000000
H     2.831000000     3.825000000    -1.901000000
O     3.387000000     4.903000000     2.213000000
H     4.166000000     4.845000000     1.659000000
H     2.712000000     5.268000000     1.641000000
O     1.440000000    -6.748000000     2.536000000
H     1.481000000    -6.329000000     1.676000000
H     0.509000000    -6.745000000     2.759000000
O    -2.545000000    -1.870000000    -3.481000000
H    -1.882000000    -2.395000000    -3.033000000
H    -3.357000000    -2.056000000    -3.009000000
O     3.494000000    -3.885000000    -0.836000000
H     2.642000000    -3.714000000    -0.434000000
H     3.428000000    -4.781000000    -1.168000000
O    -2.540000000     0.544000000    -5.098000000
H    -2.468000000    -0.177000000    -4.473000000
H    -2.821000000     1.291000000    -4.571000000
O     2.182000000     3.522000000    -4.636000000
H     2.951000000     3.306000000    -5.163000000
H     1.489000000     2.960000000    -4.983000000
O     1.592000000    -2.584000000    -5.605000000
H     1.511000000    -1.759000000    -5.128000000
H     1.047000000    -3.200000000    -5.114000000
O    -0.154000000     2.341000000    -5.177000000
H    -0.457000000     2.035000000    -6.032000000
H    -0.958000000     2.535000000    -4.694000000
O     3.166000000    -1.759000000     5.747000000
H     3.376000000    -2.689000000     5.829000000
H     2.258000000    -1.692000000     6.044000000
O     3.706000000     1.010000000     0.693000000
H     2.800000000     0.954000000     0.997000000
H     3.698000000     1.715000000     0.045000000
O     0.440000000    -4.098000000     4.491000000
H     1.131000000    -4.059000000     3.831000000
H    -0.374000000    -4.045000000     3.990000000
O     1.384000000     0.013000000    -4.603000000
H     0.875000000     0.823000000    -4.621000000
H     2.171000000     0.235000000    -4.106000000
O    -2.693000000     0.094000000     2.264000000
H    -1.825000000     0.144000000     1.863000000
H    -2.637000000     0.668000000     3.028000000
O     2.571000000     3.531000000     4.410000000
H     2.772000000     4.074000000     3.647000000
H     2.609000000     2.633000000     4.081000000
O    -4.495000000     6.033000000    -2.183000000
H    -5.305000000     6.086000000    -1.676000000
H    -4.001000000     5.324000000    -1.771000000
O    -4.186000000    -0.665000000     0.172000000
H    -3.829000000    -0.442000000     1.032000000
H    -4.366000000    -1.603000000     0.224000000
O     4.907000000    -1.645000000    -1.640000000
H     4.426000000    -2.291000000    -1.123000000
H     5.687000000    -2.111000000    -1.941000000
O    -4.308000000    -3.731000000     1.054000000
H    -4.069000000    -3.355000000     1.901000000
H    -4.017000000    -4.642000000     1.107000000
O    -1.963000000     7.289000000    -0.725000000
H    -1.482000000     6.722000000    -1.327000000
H    -1.776000000     8.177000000    -1.030000000
O     1.598000000     6.126000000     0.701000000
H     1.645000000     7.081000000     0.646000000
H     1.421000000     5.843000000    -0.196000000
O     0.558000000    -8.295000000    -1.719000000
H     0.782000000    -8.375000000    -2.646000000
H    -0.314000000    -7.902000000    -1.716000000
O    -5.940000000     3.631000000     0.975000000
H    -6.313000000     3.825000000     1.835000000
H    -5.030000000     3.921000000     1.038000000
O    -3.351000000    -2.153000000     3.623000000
H    -3.981000000    -2.018000000     4.330000000
H    -3.288000000    -1.301000000     3.191000000
O     5.190000000     2.371000000     2.870000000
H     4.441000000     1.795000000     3.026000000
H     5.557000000     2.066000000     2.040000000
O    -1.727000000    -0.245000000     6.330000000
H    -1.416000000     0.315000000     7.041000000
H    -1.027000000    -0.885000000     6.205000000
O     2.427000000    -6.350000000    -2.974000000
H     1.819000000    -5.675000000    -3.274000000
H     2.761000000    -6.747000000    -3.779000000
O    -4.068000000    -6.386000000    -0.103000000
H    -4.194000000    -7.202000000     0.381000000
H    -3.160000000    -6.423000000    -0.404000000
O    -2.602000000     1.507000000     4.509000000
H    -2.582000000     0.765000000     5.113000000
H    -2.293000000     2.248000000     5.029000000
O    -2.531000000     3.186000000    -4.140000000
H    -2.468000000     3.112000000    -3.187000000
H    -2.724000000     4.110000000    -4.296000000
O     3.684000000     0.740000000    -2.967000000
H     3.854000000     0.048000000    -2.328000000
H     3.570000000     1.531000000    -2.441000000
