161
-3049.56413
C     0.262000000     0.489000000     1.456000000
H     0.319000000     0.740000000     2.512000000
C     0.119000000    -0.848000000     1.106000000
H     0.129000000    -1.728000000     1.744000000
C     0.039000000    -1.183000000    -0.277000000
C    -0.165000000    -2.584000000    -0.815000000
H    -0.236000000    -3.259000000     0.040000000
H    -1.025000000    -2.634000000    -1.486000000
H     0.745000000    -2.804000000    -1.379000000
C    -0.046000000    -0.177000000    -1.225000000
H    -0.307000000    -0.409000000    -2.254000000
C    -0.066000000     1.152000000    -0.863000000
H    -0.112000000     1.841000000    -1.703000000
C     0.115000000     1.493000000     0.431000000
C     0.152000000     2.943000000     0.785000000
O    -0.256000000     3.761000000    -0.030000000
O     0.331000000     3.201000000     1.959000000
O     1.293000000     3.391000000    -4.144000000
H     0.397000000     3.432000000    -3.808000000
H     1.810000000     3.890000000    -3.511000000
O    -5.160000000     2.680000000     1.474000000
H    -4.327000000     2.931000000     1.076000000
H    -5.459000000     1.933000000     0.956000000
O    -0.786000000    -4.597000000     5.117000000
H    -1.183000000    -5.292000000     5.642000000
H    -0.748000000    -3.844000000     5.707000000
O     1.773000000     0.772000000     5.562000000
H     1.904000000     1.381000000     4.835000000
H     2.654000000     0.476000000     5.788000000
O     1.609000000    -2.705000000     3.853000000
H     2.273000000    -2.250000000     3.336000000
H     1.603000000    -3.596000000     3.504000000
O    -2.712000000    -3.093000000     3.171000000
H    -2.154000000    -2.780000000     3.883000000
H    -2.467000000    -4.012000000     3.061000000
O     4.864000000     2.570000000    -0.685000000
H     5.688000000     2.116000000    -0.859000000
H     4.186000000     1.940000000    -0.929000000
O     0.864000000    -5.106000000     2.741000000
H     0.202000000    -5.333000000     2.088000000
H     0.423000000    -5.227000000     3.582000000
O    -5.052000000    -1.385000000     2.560000000
H    -5.096000000    -1.559000000     1.619000000
H    -4.246000000    -1.815000000     2.845000000
O     2.461000000     6.317000000    -0.116000000
H     1.512000000     6.386000000    -0.015000000
H     2.772000000     6.025000000     0.741000000
O    -3.751000000     5.115000000     2.810000000
H    -4.443000000     4.896000000     3.434000000
H    -2.966000000     4.701000000     3.168000000
O    -0.142000000     6.392000000    -0.349000000
H    -0.946000000     6.759000000     0.019000000
H    -0.233000000     5.447000000    -0.230000000
O    -3.160000000     0.124000000     0.000000000
H    -2.395000000    -0.110000000     0.525000000
H    -2.945000000     0.980000000    -0.369000000
O    -1.611000000     3.563000000     3.765000000
H    -0.946000000     3.409000000     3.094000000
H    -1.851000000     2.688000000     4.070000000
O    -0.595000000    -6.489000000     0.016000000
H    -0.709000000    -6.382000000    -0.928000000
H    -0.366000000    -7.412000000     0.126000000
O    -0.872000000    -1.753000000     4.723000000
H    -0.827000000    -0.919000000     4.255000000
H     0.006000000    -2.123000000     4.638000000
O    -4.149000000    -2.044000000    -0.903000000
H    -4.151000000    -1.779000000    -1.823000000
H    -3.744000000    -1.309000000    -0.443000000
O    -2.699000000     6.807000000     0.737000000
H    -3.076000000     6.774000000    -0.142000000
H    -3.209000000     6.172000000     1.240000000
O    -0.455000000    -0.166000000    -5.676000000
H    -0.240000000     0.398000000    -6.418000000
H    -1.153000000     0.299000000    -5.216000000
O    -0.601000000     2.893000000     6.694000000
H    -1.234000000     2.761000000     5.988000000
H     0.142000000     2.338000000     6.456000000
O     2.071000000     8.254000000     2.673000000
H     1.859000000     7.322000000     2.717000000
H     1.376000000     8.681000000     3.175000000
O    -2.054000000     1.543000000    -3.939000000
H    -1.770000000     2.231000000    -3.337000000
H    -2.775000000     1.109000000    -3.482000000
O     0.853000000     2.397000000    -6.517000000
H     1.517000000     1.723000000    -6.659000000
H     1.184000000     2.908000000    -5.778000000
O    -1.987000000     4.879000000    -5.145000000
H    -1.204000000     4.409000000    -4.857000000
H    -2.685000000     4.225000000    -5.110000000
O    -3.333000000     2.946000000    -0.624000000
H    -3.883000000     3.539000000    -1.136000000
H    -2.446000000     3.290000000    -0.730000000
O    -2.203000000    -5.760000000     2.107000000
H    -1.506000000    -6.061000000     1.524000000
H    -2.333000000    -6.484000000     2.720000000
O    -0.261000000    -2.854000000    -6.547000000
H    -0.338000000    -1.949000000    -6.246000000
H    -0.108000000    -3.359000000    -5.748000000
O     3.004000000     0.490000000    -1.216000000
H     2.096000000     0.476000000    -0.913000000
H     2.982000000     0.035000000    -2.059000000
O     4.781000000    -5.475000000    -0.962000000
H     4.195000000    -5.246000000    -0.240000000
H     5.639000000    -5.152000000    -0.686000000
O     3.367000000    -6.270000000     1.299000000
H     2.689000000    -5.751000000     1.732000000
H     3.061000000    -7.174000000     1.375000000
O    -4.375000000     0.264000000    -2.663000000
H    -4.578000000    -0.404000000    -3.318000000
H    -5.133000000     0.849000000    -2.677000000
O     0.680000000    -0.566000000     7.718000000
H     1.005000000    -0.309000000     6.855000000
H     0.477000000     0.261000000     8.154000000
O    -0.367000000    -3.920000000    -3.907000000
H    -0.289000000    -3.131000000    -3.372000000
H    -0.045000000    -4.624000000    -3.344000000
O     4.037000000     0.813000000     1.499000000
H     4.970000000     0.847000000     1.289000000
H     3.598000000     0.899000000     0.653000000
O     3.328000000    -5.638000000    -4.420000000
H     3.128000000    -6.073000000    -5.248000000
H     2.474000000    -5.507000000    -4.006000000
O     0.829000000    -5.791000000    -2.515000000
H     0.952000000    -6.726000000    -2.348000000
H     1.471000000    -5.361000000    -1.950000000
O     3.326000000    -2.776000000    -4.487000000
H     3.238000000    -3.728000000    -4.459000000
H     3.907000000    -2.568000000    -3.754000000
O     3.181000000     4.967000000     4.679000000
H     2.393000000     5.328000000     4.274000000
H     3.170000000     4.040000000     4.440000000
O     2.408000000     2.417000000     3.328000000
H     2.806000000     1.644000000     2.929000000
H     1.633000000     2.591000000     2.794000000
O     2.791000000     4.140000000    -1.933000000
H     3.579000000     3.664000000    -1.672000000
H     2.697000000     4.829000000    -1.275000000
O    -3.430000000    -6.349000000    -2.745000000
H    -3.603000000    -5.413000000    -2.845000000
H    -3.871000000    -6.755000000    -3.491000000
O     1.066000000     5.649000000     3.132000000
H     0.789000000     4.891000000     2.617000000
H     0.334000000     5.814000000     3.727000000
O    -4.149000000    -4.397000000     0.657000000
H    -4.394000000    -3.763000000    -0.017000000
H    -3.258000000    -4.150000000     0.906000000
O    -0.935000000     4.189000000    -2.823000000
H    -1.578000000     4.892000000    -2.724000000
H    -0.389000000     4.252000000    -2.040000000
O     2.026000000     0.496000000    -4.051000000
H     2.079000000     1.449000000    -3.974000000
H     1.401000000     0.348000000    -4.760000000
O     3.814000000    -1.830000000     2.589000000
H     4.723000000    -1.971000000     2.323000000
H     3.661000000    -0.898000000     2.437000000
O    -2.931000000     1.463000000     4.849000000
H    -2.890000000     0.549000000     5.130000000
H    -3.863000000     1.677000000     4.864000000
O    -3.005000000     6.271000000    -2.626000000
H    -3.727000000     5.671000000    -2.816000000
H    -3.165000000     7.025000000    -3.193000000
