161
-3000.68694
C    -0.608000000    -1.427000000     0.234000000
H    -1.024000000    -2.429000000     0.172000000
C     0.714000000    -1.005000000     0.348000000
H     1.481000000    -1.773000000     0.406000000
C     1.126000000     0.298000000     0.192000000
C     2.658000000     0.684000000     0.158000000
H     2.861000000     1.678000000    -0.245000000
H     3.029000000     0.709000000     1.185000000
H     3.193000000    -0.051000000    -0.447000000
C     0.218000000     1.260000000    -0.075000000
H     0.618000000     2.258000000    -0.230000000
C    -1.135000000     0.924000000    -0.113000000
H    -1.864000000     1.697000000    -0.343000000
C    -1.540000000    -0.365000000    -0.006000000
C    -2.880000000    -0.747000000    -0.337000000
O    -3.652000000     0.167000000    -0.539000000
O    -3.198000000    -1.885000000    -0.363000000
O     5.264000000     3.391000000     0.348000000
H     6.056000000     3.445000000    -0.187000000
H     4.989000000     4.301000000     0.462000000
O    -4.801000000     5.529000000     1.086000000
H    -4.804000000     5.060000000     1.921000000
H    -5.118000000     4.887000000     0.450000000
O    -0.229000000     2.616000000     3.286000000
H     0.233000000     1.862000000     3.650000000
H    -0.427000000     3.165000000     4.045000000
O    -0.965000000     2.223000000    -3.679000000
H    -0.082000000     1.909000000    -3.871000000
H    -1.208000000     2.738000000    -4.449000000
O    -5.218000000     3.469000000    -0.908000000
H    -4.265000000     3.492000000    -0.996000000
H    -5.544000000     3.728000000    -1.770000000
O     0.879000000    -3.332000000     3.816000000
H     1.428000000    -3.500000000     4.582000000
H     1.028000000    -2.409000000     3.611000000
O     6.208000000     0.965000000     1.263000000
H     5.791000000     1.026000000     2.122000000
H     5.892000000     1.734000000     0.788000000
O     3.154000000     4.411000000     3.381000000
H     2.732000000     4.855000000     4.117000000
H     3.800000000     3.833000000     3.788000000
O     4.816000000    -5.038000000    -0.921000000
H     4.193000000    -5.507000000    -1.476000000
H     4.281000000    -4.671000000    -0.217000000
O    -4.719000000     3.238000000    -3.916000000
H    -3.774000000     3.197000000    -3.766000000
H    -4.816000000     3.823000000    -4.667000000
O     5.764000000     0.043000000    -5.035000000
H     6.181000000     0.806000000    -4.636000000
H     5.340000000    -0.408000000    -4.305000000
O     3.463000000     2.455000000     5.500000000
H     2.646000000     2.065000000     5.813000000
H     4.053000000     2.410000000     6.252000000
O    -3.089000000    -1.001000000     3.356000000
H    -3.253000000    -0.078000000     3.164000000
H    -3.670000000    -1.476000000     2.763000000
O     2.547000000    -0.891000000     5.412000000
H     3.170000000    -0.166000000     5.452000000
H     1.751000000    -0.504000000     5.046000000
O     4.035000000    -1.862000000    -3.318000000
H     4.121000000    -1.501000000    -2.435000000
H     3.251000000    -2.409000000    -3.277000000
O    -4.899000000    -2.750000000    -2.191000000
H    -4.300000000    -2.549000000    -1.472000000
H    -4.456000000    -2.418000000    -2.972000000
O    -0.548000000     6.595000000    -2.024000000
H     0.005000000     5.814000000    -2.003000000
H    -0.978000000     6.607000000    -1.169000000
O     1.400000000    -1.941000000    -2.724000000
H     1.259000000    -2.844000000    -3.008000000
H     0.808000000    -1.828000000    -1.981000000
O    -4.505000000    -2.773000000     1.563000000
H    -4.588000000    -3.719000000     1.442000000
H    -4.067000000    -2.467000000     0.768000000
O    -7.041000000     2.158000000     0.664000000
H    -6.462000000     2.452000000    -0.039000000
H    -6.549000000     1.464000000     1.105000000
O     5.002000000     0.741000000     3.918000000
H     4.419000000     1.470000000     4.132000000
H     5.695000000     0.787000000     4.577000000
O    -2.025000000    -3.483000000     3.602000000
H    -2.075000000    -2.532000000     3.692000000
H    -1.089000000    -3.668000000     3.523000000
O    -2.447000000     3.947000000    -1.781000000
H    -2.133000000     4.545000000    -2.458000000
H    -1.936000000     3.148000000    -1.911000000
O     3.385000000    -3.564000000     0.740000000
H     2.616000000    -3.967000000     1.143000000
H     3.770000000    -3.032000000     1.436000000
O    -3.523000000    -5.588000000     2.131000000
H    -2.953000000    -4.933000000     2.535000000
H    -2.972000000    -6.011000000     1.473000000
O     0.670000000    -6.260000000    -0.130000000
H     1.168000000    -5.746000000     0.506000000
H     1.279000000    -6.401000000    -0.854000000
O     1.413000000     0.547000000    -3.743000000
H     2.071000000     1.113000000    -3.338000000
H     1.665000000    -0.339000000    -3.481000000
O    -5.482000000    -0.215000000     1.346000000
H    -4.798000000     0.033000000     0.724000000
H    -5.451000000    -1.172000000     1.367000000
O    -3.035000000     0.509000000    -4.910000000
H    -2.706000000     0.693000000    -5.790000000
H    -2.495000000     1.050000000    -4.334000000
O     3.289000000     2.751000000    -2.595000000
H     3.718000000     2.725000000    -1.740000000
H     4.008000000     2.827000000    -3.222000000
O     1.323000000     3.885000000     1.341000000
H     1.078000000     3.118000000     1.859000000
H     2.061000000     4.269000000     1.815000000
O     0.306000000    -0.560000000     3.442000000
H    -0.612000000    -0.708000000     3.216000000
H     0.717000000    -0.300000000     2.618000000
O     2.031000000    -5.475000000     2.107000000
H     2.598000000    -5.965000000     2.703000000
H     1.548000000    -4.874000000     2.674000000
O     0.088000000     5.557000000     2.982000000
H    -0.765000000     5.295000000     3.328000000
H     0.301000000     4.884000000     2.335000000
O     4.401000000    -1.735000000     2.677000000
H     4.566000000    -0.800000000     2.802000000
H     5.271000000    -2.120000000     2.574000000
O    -7.074000000    -4.322000000    -2.019000000
H    -6.981000000    -4.929000000    -2.753000000
H    -6.265000000    -3.811000000    -2.027000000
O     1.277000000     4.490000000    -1.833000000
H     1.064000000     4.162000000    -0.959000000
H     2.040000000     3.978000000    -2.101000000
O    -2.969000000     1.720000000     2.900000000
H    -2.154000000     2.209000000     2.785000000
H    -3.615000000     2.384000000     3.143000000
O    -7.519000000    -0.805000000    -1.440000000
H    -7.175000000    -0.758000000    -0.548000000
H    -6.816000000    -0.453000000    -1.986000000
O    -5.376000000    -3.524000000     4.502000000
H    -5.526000000    -4.469000000     4.519000000
H    -4.730000000    -3.397000000     3.807000000
O    -2.688000000    -1.865000000    -3.679000000
H    -2.813000000    -0.946000000    -3.917000000
H    -1.885000000    -2.122000000    -4.131000000
O    -2.534000000    -4.594000000    -1.024000000
H    -2.882000000    -4.139000000    -1.791000000
H    -2.563000000    -3.941000000    -0.324000000
O    -7.913000000     1.489000000    -3.902000000
H    -7.132000000     1.318000000    -3.376000000
H    -7.579000000     1.626000000    -4.789000000
O     0.035000000    -4.218000000    -3.821000000
H    -0.136000000    -4.554000000    -4.701000000
H     0.356000000    -4.977000000    -3.334000000
O    -1.733000000    -7.279000000     0.074000000
H    -1.985000000    -6.658000000    -0.609000000
H    -0.797000000    -7.126000000     0.205000000
O    -5.503000000     0.483000000    -2.695000000
H    -5.027000000     0.210000000    -1.910000000
H    -4.857000000     0.965000000    -3.212000000
O    -2.847000000     6.803000000    -0.397000000
H    -3.271000000     6.134000000     0.139000000
H    -3.076000000     6.571000000    -1.297000000
O     6.843000000    -1.036000000    -0.593000000
H     6.542000000    -0.289000000    -0.075000000
H     7.042000000    -0.666000000    -1.453000000
