161
-3051.13029
C    -0.903000000    -1.128000000     0.086000000
H    -1.617000000    -1.893000000     0.382000000
C     0.284000000    -0.938000000     0.776000000
H     0.557000000    -1.623000000     1.574000000
C     1.137000000     0.108000000     0.545000000
C     2.412000000     0.235000000     1.259000000
H     2.385000000     1.193000000     1.782000000
H     2.553000000    -0.614000000     1.932000000
H     3.247000000     0.121000000     0.563000000
C     0.761000000     1.067000000    -0.401000000
H     1.288000000     2.003000000    -0.568000000
C    -0.458000000     0.892000000    -1.041000000
H    -0.774000000     1.678000000    -1.722000000
C    -1.357000000    -0.121000000    -0.784000000
C    -2.821000000    -0.200000000    -1.250000000
O    -3.152000000     0.370000000    -2.238000000
O    -3.535000000    -1.143000000    -0.893000000
O     4.780000000     2.981000000     1.991000000
H     4.072000000     3.299000000     2.552000000
H     4.333000000     2.606000000     1.232000000
O     2.706000000     4.133000000     3.511000000
H     1.888000000     4.129000000     3.014000000
H     2.505000000     4.642000000     4.297000000
O     6.163000000    -2.486000000    -1.764000000
H     6.888000000    -2.980000000    -1.383000000
H     5.381000000    -2.984000000    -1.525000000
O    -1.751000000    -0.948000000     4.478000000
H    -0.848000000    -1.215000000     4.648000000
H    -1.687000000    -0.021000000     4.246000000
O     3.865000000    -1.742000000     4.215000000
H     4.435000000    -1.984000000     4.945000000
H     3.946000000    -0.791000000     4.153000000
O     4.575000000     5.907000000     0.835000000
H     4.078000000     5.495000000     1.542000000
H     5.377000000     6.218000000     1.256000000
O    -2.947000000    -3.792000000    -3.533000000
H    -3.781000000    -3.353000000    -3.360000000
H    -2.434000000    -3.147000000    -4.020000000
O    -1.288000000    -0.008000000    -4.062000000
H    -1.958000000     0.289000000    -3.447000000
H    -0.915000000    -0.789000000    -3.651000000
O     1.662000000    -3.623000000    -1.498000000
H     2.258000000    -3.777000000    -0.765000000
H     1.797000000    -2.704000000    -1.728000000
O     0.956000000     2.227000000     5.438000000
H     0.328000000     1.781000000     6.006000000
H     0.457000000     2.441000000     4.650000000
O    -5.245000000     2.722000000     0.738000000
H    -4.825000000     3.110000000    -0.030000000
H    -5.320000000     1.792000000     0.525000000
O     4.616000000    -5.530000000     1.951000000
H     4.695000000    -4.697000000     1.486000000
H     5.106000000    -5.399000000     2.763000000
O    -7.080000000    -2.539000000    -1.899000000
H    -6.184000000    -2.529000000    -2.236000000
H    -7.591000000    -2.081000000    -2.566000000
O     3.980000000    -3.148000000     0.255000000
H     4.628000000    -2.467000000     0.434000000
H     3.368000000    -3.096000000     0.989000000
O     2.054000000    -0.995000000    -2.248000000
H     2.737000000    -0.429000000    -1.890000000
H     1.655000000    -0.476000000    -2.947000000
O    -5.806000000    -0.026000000     0.061000000
H    -6.437000000    -0.729000000     0.214000000
H    -4.993000000    -0.478000000    -0.163000000
O     5.921000000    -1.678000000     2.160000000
H     6.631000000    -1.103000000     2.444000000
H     5.309000000    -1.684000000     2.896000000
O     3.374000000     1.163000000     4.401000000
H     3.734000000     1.964000000     4.019000000
H     2.773000000     1.470000000     5.079000000
O    -4.245000000    -0.725000000     2.266000000
H    -4.893000000    -0.157000000     1.851000000
H    -3.741000000    -0.140000000     2.832000000
O    -2.198000000     1.032000000    -6.417000000
H    -1.776000000     0.849000000    -5.577000000
H    -1.787000000     1.841000000    -6.721000000
O     2.648000000    -3.285000000     2.483000000
H     1.780000000    -3.431000000     2.859000000
H     3.126000000    -2.809000000     3.162000000
O    -3.510000000    -3.759000000    -0.083000000
H    -3.563000000    -2.936000000    -0.569000000
H    -2.573000000    -3.951000000    -0.039000000
O     7.418000000     2.161000000     1.430000000
H     6.544000000     2.362000000     1.765000000
H     7.958000000     2.899000000     1.712000000
O    -1.854000000    -6.037000000    -2.163000000
H    -1.213000000    -5.668000000    -1.555000000
H    -2.232000000    -5.276000000    -2.603000000
O    -0.643000000    -4.687000000    -0.051000000
H    -0.182000000    -5.515000000     0.085000000
H    -0.031000000    -4.153000000    -0.557000000
O     7.723000000    -0.233000000    -0.386000000
H     7.717000000    -0.993000000     0.195000000
H     7.590000000     0.515000000     0.196000000
O    -3.864000000    -6.377000000     0.846000000
H    -4.617000000    -6.667000000     0.330000000
H    -3.866000000    -5.424000000     0.758000000
O    -3.854000000     2.956000000    -1.633000000
H    -4.256000000     3.220000000    -2.460000000
H    -3.675000000     2.022000000    -1.741000000
O    -2.682000000    -3.136000000     3.048000000
H    -3.385000000    -2.910000000     2.438000000
H    -2.494000000    -2.320000000     3.510000000
O    -0.118000000     3.500000000     2.577000000
H    -0.181000000     4.389000000     2.924000000
H    -0.585000000     3.534000000     1.742000000
O     1.326000000     0.287000000    -4.570000000
H     0.397000000     0.448000000    -4.405000000
H     1.653000000     1.111000000    -4.930000000
O     3.961000000     2.353000000    -0.440000000
H     4.040000000     1.438000000    -0.713000000
H     4.711000000     2.788000000    -0.845000000
O     2.520000000     4.856000000    -0.997000000
H     3.165000000     5.514000000    -1.256000000
H     3.044000000     4.111000000    -0.701000000
O    -1.429000000     1.272000000     2.703000000
H    -1.172000000     0.933000000     1.845000000
H    -1.112000000     2.175000000     2.708000000
O    -6.596000000    -4.891000000    -0.358000000
H    -5.910000000    -5.157000000    -0.970000000
H    -6.855000000    -4.018000000    -0.653000000
O    -0.298000000     4.445000000    -3.838000000
H     0.464000000     3.868000000    -3.893000000
H    -0.310000000     4.906000000    -4.676000000
O    -0.122000000    -3.987000000     2.685000000
H    -0.978000000    -3.755000000     3.046000000
H    -0.306000000    -4.249000000     1.783000000
O     0.088000000     4.749000000    -1.105000000
H    -0.085000000     4.651000000    -2.042000000
H     1.025000000     4.934000000    -1.053000000
O     0.629000000    -1.195000000     5.788000000
H     1.033000000    -1.037000000     6.641000000
H     1.362000000    -1.418000000     5.213000000
O     2.091000000    -5.933000000     3.323000000
H     2.816000000    -5.964000000     2.698000000
H     1.413000000    -5.426000000     2.876000000
O    -8.141000000     0.986000000    -2.918000000
H    -8.324000000     1.644000000    -3.590000000
H    -7.247000000     0.699000000    -3.102000000
O    -1.957000000     3.762000000     0.208000000
H    -1.260000000     4.044000000    -0.384000000
H    -2.722000000     3.655000000    -0.357000000
O     7.865000000    -2.882000000     0.943000000
H     7.878000000    -3.768000000     1.307000000
H     7.134000000    -2.452000000     1.387000000
O    -5.508000000     1.276000000    -3.690000000
H    -5.798000000     0.739000000    -4.427000000
H    -5.000000000     0.677000000    -3.143000000
O    -4.609000000    -1.855000000    -3.325000000
H    -4.474000000    -1.196000000    -4.006000000
H    -4.335000000    -1.422000000    -2.516000000
O    -0.310000000    -2.395000000    -3.503000000
H     0.101000000    -2.379000000    -4.367000000
H     0.403000000    -2.613000000    -2.903000000
O    -4.209000000     3.421000000    -4.728000000
H    -4.888000000     2.764000000    -4.574000000
H    -3.460000000     2.920000000    -5.051000000
O     5.160000000     0.314000000    -1.893000000
H     5.874000000     0.946000000    -1.975000000
H     5.590000000    -0.500000000    -1.632000000
