161
-3038.52254
C    -0.668000000    -1.328000000    -0.200000000
H    -1.051000000    -2.339000000    -0.306000000
C     0.682000000    -1.138000000     0.094000000
H     1.240000000    -2.046000000     0.309000000
C     1.236000000     0.178000000     0.161000000
C     2.683000000     0.483000000     0.468000000
H     2.918000000    -0.060000000     1.386000000
H     3.406000000     0.116000000    -0.265000000
H     2.851000000     1.539000000     0.685000000
C     0.392000000     1.263000000     0.000000000
H     0.649000000     2.301000000     0.191000000
C    -0.991000000     1.065000000    -0.242000000
H    -1.702000000     1.868000000    -0.413000000
C    -1.532000000    -0.264000000    -0.344000000
C    -2.969000000    -0.482000000    -0.494000000
O    -3.742000000     0.422000000    -0.428000000
O    -3.398000000    -1.574000000    -0.594000000
O     2.775000000     4.064000000     0.318000000
H     3.212000000     3.389000000     0.838000000
H     3.316000000     4.845000000     0.436000000
O    -8.908000000    -0.400000000    -0.074000000
H    -7.998000000    -0.485000000    -0.359000000
H    -8.941000000    -0.862000000     0.764000000
O     4.303000000    -1.684000000     6.211000000
H     4.373000000    -1.871000000     5.274000000
H     3.974000000    -0.786000000     6.252000000
O     0.722000000     3.336000000     2.971000000
H     0.636000000     4.164000000     2.497000000
H     1.541000000     3.424000000     3.459000000
O     2.047000000    -0.269000000     3.826000000
H     2.863000000    -0.708000000     3.588000000
H     2.299000000     0.643000000     3.974000000
O    -3.103000000    -3.929000000     3.025000000
H    -2.167000000    -3.759000000     2.923000000
H    -3.285000000    -3.732000000     3.943000000
O     7.370000000    -0.724000000     0.023000000
H     6.737000000    -0.023000000     0.180000000
H     7.600000000    -1.040000000     0.896000000
O     0.483000000    -0.803000000    -3.788000000
H    -0.025000000    -1.598000000    -3.953000000
H    -0.125000000    -0.088000000    -3.972000000
O     1.457000000    -4.215000000    -1.802000000
H     0.820000000    -3.749000000    -1.262000000
H     1.649000000    -5.014000000    -1.311000000
O     2.579000000     5.460000000    -3.263000000
H     1.940000000     5.038000000    -2.688000000
H     2.456000000     5.033000000    -4.111000000
O    -1.886000000    -2.208000000    -2.934000000
H    -2.158000000    -2.097000000    -2.023000000
H    -2.666000000    -1.990000000    -3.445000000
O     2.858000000    -5.139000000     2.688000000
H     2.415000000    -5.920000000     3.019000000
H     3.188000000    -4.700000000     3.472000000
O    -0.190000000     2.647000000    -3.756000000
H     0.021000000     2.954000000    -2.874000000
H     0.559000000     2.913000000    -4.289000000
O     0.432000000     5.887000000     1.651000000
H     0.056000000     5.935000000     0.772000000
H    -0.326000000     5.890000000     2.236000000
O    -4.789000000    -3.206000000    -2.490000000
H    -4.634000000    -2.437000000    -1.941000000
H    -5.384000000    -3.752000000    -1.975000000
O    -1.054000000     1.265000000     2.848000000
H    -0.707000000     0.591000000     2.265000000
H    -0.461000000     2.008000000     2.734000000
O     3.893000000     1.905000000    -3.374000000
H     4.759000000     1.764000000    -3.756000000
H     4.034000000     2.571000000    -2.700000000
O    -3.816000000     1.542000000     2.012000000
H    -3.925000000     1.297000000     1.093000000
H    -2.955000000     1.198000000     2.250000000
O     5.080000000     3.033000000     2.213000000
H     5.159000000     3.964000000     2.418000000
H     4.608000000     2.662000000     2.958000000
O    -1.142000000    -5.221000000    -3.150000000
H    -1.053000000    -4.269000000    -3.099000000
H    -0.412000000    -5.501000000    -3.701000000
O    -0.503000000     6.291000000    -3.396000000
H    -0.457000000     5.611000000    -2.724000000
H     0.039000000     7.003000000    -3.054000000
O     6.811000000     2.078000000     0.490000000
H     6.131000000     2.190000000     1.155000000
H     7.608000000     1.903000000     0.991000000
O    -6.182000000     0.575000000     2.974000000
H    -5.499000000     1.217000000     2.778000000
H    -6.319000000     0.112000000     2.148000000
O    -2.077000000    -5.956000000    -0.760000000
H    -1.723000000    -5.901000000    -1.648000000
H    -2.236000000    -5.046000000    -0.509000000
O     0.468000000    -4.594000000     1.385000000
H     1.373000000    -4.742000000     1.661000000
H     0.240000000    -5.377000000     0.883000000
O    -4.018000000     3.437000000    -0.245000000
H    -4.926000000     3.262000000    -0.491000000
H    -3.613000000     2.571000000    -0.191000000
O     2.975000000    -0.368000000    -4.572000000
H     2.038000000    -0.472000000    -4.407000000
H     3.201000000     0.464000000    -4.157000000
O    -6.143000000    -0.726000000    -0.024000000
H    -5.702000000    -1.575000000    -0.004000000
H    -5.449000000    -0.100000000    -0.229000000
O     3.265000000     2.274000000     4.609000000
H     3.870000000     2.814000000     5.118000000
H     2.431000000     2.347000000     5.073000000
O     4.691000000    -1.365000000     3.311000000
H     4.544000000    -1.973000000     2.587000000
H     5.631000000    -1.186000000     3.287000000
O    -3.771000000    -4.965000000    -4.553000000
H    -4.174000000    -4.188000000    -4.165000000
H    -2.947000000    -5.071000000    -4.077000000
O    -3.364000000     5.287000000    -2.622000000
H    -3.662000000     5.889000000    -3.305000000
H    -4.156000000     4.821000000    -2.352000000
O    -4.158000000     3.962000000     3.176000000
H    -3.869000000     3.097000000     2.886000000
H    -5.110000000     3.943000000     3.077000000
O    -4.988000000    -3.210000000     1.057000000
H    -4.490000000    -2.644000000     0.467000000
H    -4.331000000    -3.575000000     1.649000000
O     4.069000000    -3.030000000     1.501000000
H     3.616000000    -3.845000000     1.716000000
H     4.038000000    -2.983000000     0.546000000
O    -2.445000000     0.983000000    -4.516000000
H    -3.220000000     1.379000000    -4.913000000
H    -1.832000000     1.711000000    -4.409000000
O    -7.060000000    -1.448000000    -4.107000000
H    -6.310000000    -1.040000000    -3.674000000
H    -7.546000000    -0.714000000    -4.484000000
O     2.830000000    -2.049000000    -1.707000000
H     2.334000000    -1.447000000    -2.262000000
H     2.419000000    -2.902000000    -1.851000000
O    -1.680000000     5.422000000    -0.654000000
H    -2.181000000     5.426000000    -1.470000000
H    -2.310000000     5.148000000     0.013000000
O     0.751000000     4.233000000    -1.600000000
H     1.427000000     4.147000000    -0.929000000
H    -0.071000000     4.258000000    -1.111000000
O    -7.344000000     2.064000000    -3.122000000
H    -7.883000000     1.548000000    -3.721000000
H    -6.556000000     1.537000000    -2.994000000
O    -3.343000000    -1.398000000    -5.185000000
H    -3.184000000    -1.649000000    -6.095000000
H    -2.886000000    -0.564000000    -5.082000000
O    -0.054000000    -1.944000000     3.188000000
H     0.634000000    -1.288000000     3.300000000
H     0.162000000    -2.377000000     2.362000000
O     4.963000000    -3.737000000    -1.287000000
H     4.521000000    -2.993000000    -1.697000000
H     5.891000000    -3.596000000    -1.473000000
O    -6.079000000    -2.291000000     3.614000000
H    -5.616000000    -2.658000000     2.860000000
H    -5.472000000    -1.644000000     3.975000000
O    -5.112000000     0.482000000    -3.035000000
H    -4.736000000     0.622000000    -2.166000000
H    -4.358000000     0.297000000    -3.596000000
O     0.529000000    -6.617000000    -0.692000000
H     0.650000000    -7.409000000    -1.216000000
H    -0.268000000    -6.781000000    -0.188000000
O     6.679000000     1.824000000    -2.161000000
H     6.621000000     1.725000000    -1.210000000
H     6.624000000     2.768000000    -2.307000000
