161
-3033.14534
C     0.223000000     1.069000000     1.087000000
H     0.287000000     1.622000000     2.021000000
C     0.458000000    -0.363000000     1.170000000
H     0.704000000    -0.796000000     2.136000000
C     0.249000000    -1.203000000     0.058000000
C     0.499000000    -2.709000000     0.163000000
H     1.320000000    -2.850000000     0.869000000
H    -0.388000000    -3.259000000     0.484000000
H     0.961000000    -3.085000000    -0.752000000
C    -0.155000000    -0.661000000    -1.161000000
H    -0.383000000    -1.320000000    -1.995000000
C    -0.395000000     0.713000000    -1.192000000
H    -0.752000000     1.130000000    -2.130000000
C    -0.287000000     1.600000000    -0.097000000
C    -0.679000000     3.012000000    -0.201000000
O    -1.269000000     3.333000000    -1.191000000
O    -0.392000000     3.760000000     0.735000000
O    -6.000000000     5.217000000    -0.464000000
H    -6.702000000     4.645000000    -0.773000000
H    -5.194000000     4.761000000    -0.708000000
O    -3.343000000     5.928000000    -3.201000000
H    -3.466000000     6.274000000    -4.085000000
H    -3.651000000     5.023000000    -3.253000000
O     0.950000000    -4.542000000    -5.617000000
H     1.023000000    -5.083000000    -4.831000000
H     0.193000000    -3.980000000    -5.452000000
O     3.016000000    -3.239000000     3.355000000
H     3.057000000    -4.181000000     3.521000000
H     2.227000000    -3.124000000     2.824000000
O     1.641000000     5.982000000    -3.366000000
H     1.520000000     6.197000000    -2.441000000
H     1.061000000     5.236000000    -3.517000000
O     3.787000000     2.270000000     3.763000000
H     3.715000000     1.317000000     3.824000000
H     2.917000000     2.592000000     3.998000000
O     0.244000000    -2.805000000     4.807000000
H     0.485000000    -1.884000000     4.901000000
H     0.886000000    -3.276000000     5.338000000
O    -4.791000000    -2.265000000     2.338000000
H    -4.715000000    -3.203000000     2.517000000
H    -4.127000000    -2.095000000     1.669000000
O     2.939000000    -0.489000000    -1.496000000
H     2.648000000    -1.205000000    -2.061000000
H     2.142000000    -0.193000000    -1.056000000
O    -2.403000000     7.826000000     2.291000000
H    -1.492000000     8.038000000     2.086000000
H    -2.478000000     6.890000000     2.106000000
O     1.063000000     2.733000000     5.388000000
H     1.153000000     3.027000000     6.294000000
H     0.430000000     3.337000000     5.001000000
O     1.098000000     6.124000000    -0.666000000
H     0.245000000     6.382000000    -1.016000000
H     0.903000000     5.401000000    -0.069000000
O    -3.002000000    -1.321000000     0.491000000
H    -3.144000000    -0.394000000     0.685000000
H    -2.071000000    -1.381000000     0.278000000
O    -1.603000000     7.005000000    -0.769000000
H    -1.924000000     6.835000000     0.117000000
H    -2.237000000     6.572000000    -1.340000000
O    -2.717000000    -4.417000000     0.537000000
H    -2.556000000    -4.007000000     1.387000000
H    -3.028000000    -5.297000000     0.751000000
O    -0.059000000     0.170000000     4.671000000
H    -0.820000000     0.533000000     4.218000000
H     0.536000000     0.913000000     4.773000000
O    -5.381000000    -1.837000000    -1.456000000
H    -5.973000000    -2.461000000    -1.036000000
H    -4.552000000    -1.943000000    -0.990000000
O    -4.488000000    -1.125000000    -4.827000000
H    -3.682000000    -0.610000000    -4.793000000
H    -4.700000000    -1.299000000    -3.910000000
O     5.403000000    -1.933000000    -1.685000000
H     4.943000000    -1.170000000    -2.036000000
H     4.719000000    -2.453000000    -1.264000000
O    -0.259000000     4.317000000     3.263000000
H    -0.313000000     3.981000000     2.369000000
H    -1.170000000     4.396000000     3.545000000
O    -0.253000000    -6.500000000     2.499000000
H    -0.073000000    -6.841000000     1.623000000
H    -0.643000000    -7.238000000     2.968000000
O     0.110000000     1.174000000    -5.076000000
H     0.956000000     0.728000000    -5.122000000
H     0.235000000     1.978000000    -5.581000000
O    -3.704000000     4.004000000    -1.038000000
H    -4.097000000     3.306000000    -1.563000000
H    -2.769000000     3.955000000    -1.237000000
O    -3.753000000     0.790000000    -1.890000000
H    -4.306000000     0.052000000    -1.635000000
H    -4.359000000     1.421000000    -2.277000000
O    -2.549000000    -3.326000000    -3.784000000
H    -1.794000000    -2.853000000    -4.133000000
H    -2.190000000    -3.859000000    -3.074000000
O     2.397000000    -2.678000000    -3.280000000
H     1.905000000    -3.419000000    -3.635000000
H     2.919000000    -3.054000000    -2.572000000
O     4.788000000    -5.447000000     0.848000000
H     5.008000000    -6.343000000     0.592000000
H     4.108000000    -5.548000000     1.514000000
O     2.353000000    -5.892000000     2.604000000
H     1.402000000    -5.980000000     2.539000000
H     2.673000000    -6.793000000     2.661000000
O    -2.521000000     0.569000000    -4.380000000
H    -1.568000000     0.567000000    -4.293000000
H    -2.842000000     0.380000000    -3.498000000
O    -1.169000000    -0.832000000     6.784000000
H    -0.285000000    -1.035000000     7.089000000
H    -1.048000000    -0.530000000     5.884000000
O    -1.642000000    -4.923000000    -1.783000000
H    -2.201000000    -5.653000000    -2.048000000
H    -2.080000000    -4.551000000    -1.017000000
O     3.598000000    -3.819000000    -1.148000000
H     2.962000000    -4.518000000    -1.300000000
H     4.133000000    -4.137000000    -0.421000000
O     4.203000000    -0.510000000     3.102000000
H     3.684000000    -1.305000000     2.981000000
H     4.703000000    -0.424000000     2.289000000
O     2.319000000    -0.322000000    -5.055000000
H     3.083000000     0.254000000    -5.043000000
H     2.549000000    -1.038000000    -4.463000000
O     3.650000000     3.185000000    -0.951000000
H     4.506000000     3.104000000    -1.372000000
H     3.379000000     2.282000000    -0.783000000
O     4.052000000     5.985000000    -0.585000000
H     3.097000000     6.025000000    -0.637000000
H     4.266000000     5.077000000    -0.799000000
O    -1.394000000    -4.100000000     3.175000000
H    -0.682000000    -3.594000000     3.566000000
H    -0.968000000    -4.883000000     2.826000000
O     2.754000000    -6.352000000    -1.699000000
H     3.550000000    -6.165000000    -1.201000000
H     3.015000000    -7.029000000    -2.323000000
O     0.927000000    -5.098000000    -3.077000000
H     0.131000000    -5.174000000    -2.551000000
H     1.568000000    -5.645000000    -2.621000000
O     2.728000000     6.388000000     2.974000000
H     3.681000000     6.466000000     3.010000000
H     2.555000000     5.941000000     2.145000000
O     2.144000000     4.028000000     1.602000000
H     1.816000000     4.363000000     2.437000000
H     1.366000000     3.691000000     1.157000000
O     2.450000000     2.961000000    -3.682000000
H     2.430000000     3.868000000    -3.989000000
H     2.663000000     3.028000000    -2.751000000
O    -3.441000000     1.465000000     0.954000000
H    -4.396000000     1.517000000     0.921000000
H    -3.144000000     2.090000000     0.293000000
O    -2.210000000     5.357000000     1.416000000
H    -2.781000000     4.851000000     0.838000000
H    -1.329000000     5.031000000     1.229000000
O    -0.186000000     3.943000000    -3.447000000
H     0.239000000     3.092000000    -3.553000000
H    -0.799000000     3.817000000    -2.723000000
O    -0.375000000    -2.252000000    -5.180000000
H    -0.623000000    -2.167000000    -6.101000000
H     0.449000000    -1.771000000    -5.109000000
O    -2.303000000     1.440000000     3.485000000
H    -2.357000000     2.382000000     3.648000000
H    -2.486000000     1.347000000     2.551000000
O    -2.888000000     1.995000000    -6.669000000
H    -2.850000000     1.161000000    -7.138000000
H    -2.810000000     1.755000000    -5.746000000
