161
-3042.83531
C    -0.884000000     0.192000000    -1.138000000
H    -1.512000000     0.295000000    -2.019000000
C    -0.225000000    -0.955000000    -0.801000000
H    -0.409000000    -1.809000000    -1.448000000
C     0.659000000    -0.977000000     0.249000000
C     1.506000000    -2.243000000     0.507000000
H     1.037000000    -2.972000000     1.171000000
H     1.639000000    -2.826000000    -0.407000000
H     2.513000000    -2.001000000     0.855000000
C     0.729000000     0.059000000     1.097000000
H     1.438000000     0.004000000     1.919000000
C    -0.114000000     1.202000000     0.902000000
H    -0.047000000     2.039000000     1.592000000
C    -0.919000000     1.295000000    -0.257000000
C    -1.636000000     2.566000000    -0.667000000
O    -1.176000000     3.641000000    -0.197000000
O    -2.606000000     2.494000000    -1.359000000
O     2.674000000     2.946000000    -2.368000000
H     1.775000000     3.268000000    -2.442000000
H     3.190000000     3.552000000    -2.899000000
O     2.766000000     1.041000000     3.594000000
H     2.511000000     1.428000000     4.431000000
H     3.445000000     1.624000000     3.257000000
O    -1.810000000     7.993000000    -0.602000000
H    -1.111000000     8.632000000    -0.745000000
H    -2.258000000     8.301000000     0.186000000
O     5.326000000    -4.932000000     3.616000000
H     4.506000000    -5.080000000     4.088000000
H     5.052000000    -4.651000000     2.743000000
O     0.251000000     4.572000000     1.726000000
H    -0.280000000     4.240000000     1.002000000
H    -0.321000000     5.191000000     2.178000000
O    -2.983000000     2.839000000     3.707000000
H    -3.455000000     2.605000000     4.506000000
H    -2.441000000     3.586000000     3.960000000
O    -0.401000000    -4.938000000    -0.626000000
H    -0.247000000    -5.789000000    -0.216000000
H    -1.188000000    -4.604000000    -0.195000000
O     3.648000000    -1.697000000     4.782000000
H     3.462000000    -2.620000000     4.955000000
H     2.791000000    -1.271000000     4.809000000
O    -1.491000000    -0.998000000    -6.071000000
H    -2.141000000    -1.594000000    -5.698000000
H    -1.276000000    -0.400000000    -5.355000000
O     0.323000000    -2.564000000    -4.327000000
H     0.763000000    -2.831000000    -5.134000000
H    -0.595000000    -2.462000000    -4.578000000
O     3.779000000    -4.084000000     1.014000000
H     3.005000000    -3.530000000     1.117000000
H     4.060000000    -3.939000000     0.111000000
O     1.142000000    -4.676000000    -2.703000000
H     0.499000000    -4.667000000    -1.993000000
H     0.830000000    -4.011000000    -3.316000000
O    -3.442000000     1.447000000    -3.888000000
H    -2.539000000     1.200000000    -4.086000000
H    -3.419000000     1.729000000    -2.973000000
O    -2.684000000     4.446000000    -3.153000000
H    -3.334000000     4.088000000    -3.758000000
H    -2.699000000     3.850000000    -2.404000000
O    -6.240000000     4.095000000     1.674000000
H    -6.557000000     4.421000000     0.832000000
H    -5.380000000     3.723000000     1.478000000
O     4.733000000    -3.244000000    -1.695000000
H     4.495000000    -2.442000000    -2.159000000
H     5.076000000    -3.822000000    -2.377000000
O     0.840000000    -3.001000000     4.104000000
H     0.304000000    -3.550000000     3.532000000
H     0.534000000    -2.110000000     3.936000000
O     4.182000000     0.658000000     0.369000000
H     3.796000000     1.366000000     0.885000000
H     4.708000000     1.105000000    -0.294000000
O     3.394000000    -4.466000000    -4.383000000
H     4.239000000    -4.665000000    -3.982000000
H     2.748000000    -4.814000000    -3.769000000
O    -1.504000000    -4.779000000     3.848000000
H    -2.212000000    -5.367000000     4.114000000
H    -1.909000000    -3.913000000     3.822000000
O     6.569000000    -1.255000000    -0.002000000
H     6.241000000    -0.720000000     0.721000000
H     5.800000000    -1.730000000    -0.317000000
O    -3.822000000    -1.967000000     1.199000000
H    -3.337000000    -2.572000000     0.637000000
H    -4.129000000    -2.510000000     1.926000000
O     4.260000000     2.829000000     2.358000000
H     3.750000000     3.406000000     1.790000000
H     5.084000000     2.698000000     1.889000000
O     1.783000000     6.857000000    -2.771000000
H     1.275000000     7.638000000    -2.552000000
H     1.139000000     6.150000000    -2.790000000
O     1.767000000     0.357000000    -2.969000000
H     1.431000000     0.067000000    -2.121000000
H     2.142000000     1.220000000    -2.795000000
O    -5.372000000     4.148000000    -4.620000000
H    -5.246000000     4.994000000    -5.048000000
H    -4.880000000     3.530000000    -5.160000000
O     2.750000000     4.287000000     0.518000000
H     2.612000000     3.874000000    -0.334000000
H     1.876000000     4.338000000     0.904000000
O    -4.958000000     1.248000000     0.799000000
H    -5.280000000     1.733000000     0.039000000
H    -4.398000000     0.566000000     0.427000000
O     2.562000000     5.075000000     3.473000000
H     1.698000000     5.030000000     3.063000000
H     2.961000000     4.226000000     3.284000000
O    -0.038000000     0.554000000     4.112000000
H    -0.745000000     0.734000000     3.493000000
H     0.758000000     0.582000000     3.581000000
O    -3.045000000    -4.465000000    -0.374000000
H    -3.685000000    -5.176000000    -0.356000000
H    -3.085000000    -4.129000000    -1.270000000
O    -0.844000000    -7.057000000     1.960000000
H    -0.648000000    -6.207000000     2.355000000
H    -0.211000000    -7.142000000     1.247000000
O    -2.596000000    -2.090000000     4.192000000
H    -2.515000000    -1.684000000     5.055000000
H    -2.384000000    -1.388000000     3.576000000
O    -4.096000000     5.679000000    -0.804000000
H    -3.807000000     5.374000000     0.056000000
H    -3.449000000     6.337000000    -1.055000000
O    -0.828000000     5.795000000     3.866000000
H    -1.082000000     5.316000000     4.655000000
H    -0.174000000     6.425000000     4.169000000
O     5.672000000    -0.133000000     2.790000000
H     5.507000000    -0.605000000     3.606000000
H     4.803000000     0.010000000     2.415000000
O     4.393000000    -0.526000000    -3.532000000
H     3.468000000    -0.428000000    -3.305000000
H     4.387000000    -1.018000000    -4.353000000
O    -2.572000000     0.329000000     2.747000000
H    -2.745000000     1.189000000     3.128000000
H    -2.714000000     0.450000000     1.808000000
O    -0.733000000     0.856000000    -4.149000000
H    -0.320000000     1.676000000    -4.418000000
H    -0.017000000     0.336000000    -3.783000000
O    -3.563000000     6.636000000     2.744000000
H    -3.408000000     6.219000000     1.897000000
H    -2.690000000     6.878000000     3.055000000
O     0.324000000     4.358000000    -2.261000000
H    -0.471000000     4.564000000    -2.752000000
H     0.016000000     4.175000000    -1.373000000
O    -3.004000000     4.437000000     1.289000000
H    -2.289000000     4.147000000     0.723000000
H    -2.891000000     3.933000000     2.094000000
O     1.315000000    -7.582000000    -2.319000000
H     1.136000000    -6.721000000    -2.699000000
H     1.206000000    -8.193000000    -3.047000000
O     2.693000000    -6.374000000     2.191000000
H     2.137000000    -6.809000000     1.544000000
H     3.037000000    -5.607000000     1.734000000
O    -3.465000000    -3.608000000    -2.840000000
H    -3.163000000    -3.666000000    -3.746000000
H    -4.326000000    -3.195000000    -2.901000000
O    -6.200000000     1.099000000    -2.644000000
H    -6.137000000     1.943000000    -2.198000000
H    -5.519000000     1.131000000    -3.316000000
O    -2.917000000     7.020000000    -3.405000000
H    -2.847000000     7.615000000    -2.658000000
H    -2.892000000     6.145000000    -3.018000000
O    -5.950000000     3.432000000    -1.128000000
H    -5.164000000     3.850000000    -1.480000000
H    -6.651000000     4.061000000    -1.298000000
