161
-3049.30331
C    -1.176000000     0.212000000    -0.862000000
H    -1.972000000     0.161000000    -1.601000000
C    -0.788000000    -0.983000000    -0.337000000
H    -1.298000000    -1.844000000    -0.761000000
C     0.361000000    -1.067000000     0.498000000
C     0.694000000    -2.382000000     1.162000000
H     0.284000000    -2.439000000     2.172000000
H     0.384000000    -3.291000000     0.642000000
H     1.770000000    -2.424000000     1.344000000
C     1.092000000     0.115000000     0.734000000
H     2.015000000     0.033000000     1.303000000
C     0.707000000     1.313000000     0.179000000
H     1.319000000     2.198000000     0.335000000
C    -0.454000000     1.341000000    -0.596000000
C    -0.891000000     2.666000000    -1.206000000
O    -0.300000000     3.696000000    -0.953000000
O    -1.750000000     2.690000000    -2.058000000
O     3.634000000     2.891000000    -2.578000000
H     3.054000000     3.625000000    -2.372000000
H     4.366000000     3.289000000    -3.049000000
O     6.713000000     0.783000000     3.068000000
H     5.829000000     0.976000000     3.381000000
H     6.968000000     1.563000000     2.574000000
O     1.788000000     7.920000000    -1.456000000
H     1.531000000     7.740000000    -0.552000000
H     0.976000000     8.183000000    -1.889000000
O    -4.138000000     0.451000000     3.576000000
H    -3.263000000     0.378000000     3.194000000
H    -4.018000000     0.218000000     4.496000000
O     2.269000000     4.399000000    -0.309000000
H     1.438000000     3.960000000    -0.493000000
H     2.089000000     4.940000000     0.460000000
O     0.405000000     3.062000000     3.122000000
H     0.967000000     3.591000000     3.688000000
H    -0.244000000     2.684000000     3.716000000
O     6.916000000    -1.789000000     0.781000000
H     6.031000000    -2.152000000     0.820000000
H     7.031000000    -1.349000000     1.623000000
O    -0.071000000    -3.930000000    -2.373000000
H     0.581000000    -3.346000000    -1.985000000
H     0.038000000    -3.815000000    -3.317000000
O     4.494000000    -3.266000000     0.336000000
H     4.050000000    -2.696000000    -0.292000000
H     5.082000000    -3.799000000    -0.199000000
O     0.965000000    -5.987000000    -0.090000000
H     1.002000000    -6.872000000    -0.453000000
H     0.641000000    -5.447000000    -0.811000000
O     5.816000000    -2.767000000     3.695000000
H     5.220000000    -3.513000000     3.620000000
H     5.254000000    -2.000000000     3.588000000
O     0.952000000     0.288000000    -4.387000000
H     1.723000000     0.325000000    -3.821000000
H     0.452000000     1.073000000    -4.164000000
O     3.846000000    -2.549000000     6.010000000
H     3.861000000    -2.080000000     5.176000000
H     3.300000000    -2.007000000     6.579000000
O    -1.500000000     5.196000000    -3.896000000
H    -2.016000000     5.047000000    -4.689000000
H    -1.673000000     4.429000000    -3.350000000
O    -3.116000000     6.099000000     1.556000000
H    -3.221000000     5.800000000     0.652000000
H    -2.237000000     5.811000000     1.803000000
O     3.604000000    -1.096000000     3.418000000
H     2.787000000    -1.159000000     2.924000000
H     3.781000000    -0.156000000     3.468000000
O    -3.064000000    -1.617000000    -3.340000000
H    -3.556000000    -0.902000000    -2.936000000
H    -3.734000000    -2.188000000    -3.714000000
O    -0.642000000    -3.627000000     4.681000000
H    -0.444000000    -2.691000000     4.635000000
H     0.211000000    -4.047000000     4.793000000
O    -4.347000000    -3.025000000     0.812000000
H    -3.773000000    -3.208000000     1.556000000
H    -4.152000000    -3.719000000     0.183000000
O     3.414000000     6.491000000    -2.872000000
H     2.905000000     7.114000000    -2.353000000
H     2.808000000     5.770000000    -3.042000000
O     2.527000000     0.390000000    -2.200000000
H     1.807000000     0.400000000    -1.569000000
H     2.863000000     1.286000000    -2.193000000
O     5.147000000     3.547000000     0.043000000
H     5.030000000     2.941000000    -0.688000000
H     4.257000000     3.800000000     0.289000000
O    -4.536000000     2.185000000     0.090000000
H    -4.336000000     2.739000000    -0.665000000
H    -4.785000000     1.342000000    -0.291000000
O    -2.582000000    -0.340000000    -5.683000000
H    -2.558000000     0.608000000    -5.549000000
H    -2.727000000    -0.702000000    -4.809000000
O     3.769000000     4.716000000     3.365000000
H     3.214000000     5.209000000     2.761000000
H     3.196000000     4.511000000     4.104000000
O    -4.548000000     0.660000000    -2.657000000
H    -5.423000000     0.955000000    -2.909000000
H    -3.957000000     1.141000000    -3.236000000
O    -2.079000000    -6.153000000     1.998000000
H    -2.346000000    -5.297000000     2.333000000
H    -2.520000000    -6.227000000     1.151000000
O    -3.061000000    -6.653000000    -0.347000000
H    -3.005000000    -7.547000000    -0.684000000
H    -2.839000000    -6.100000000    -1.097000000
O     0.666000000    -5.903000000     2.483000000
H    -0.290000000    -5.954000000     2.483000000
H     0.914000000    -6.058000000     1.572000000
O    -0.487000000    -0.960000000     4.497000000
H    -0.081000000    -0.574000000     5.273000000
H    -0.764000000    -0.209000000     3.972000000
O    -0.216000000     7.932000000    -3.375000000
H    -0.600000000     7.058000000    -3.448000000
H    -0.964000000     8.527000000    -3.422000000
O    -5.785000000    -0.755000000    -0.380000000
H    -5.391000000    -1.524000000     0.033000000
H    -5.463000000    -0.776000000    -1.281000000
O     1.843000000     6.053000000     1.822000000
H     0.899000000     5.920000000     1.916000000
H     1.930000000     6.970000000     1.560000000
O     3.831000000    -7.105000000     0.073000000
H     3.386000000    -6.261000000     0.150000000
H     3.165000000    -7.696000000    -0.279000000
O     2.635000000    -2.290000000    -1.421000000
H     2.638000000    -1.369000000    -1.682000000
H     3.177000000    -2.726000000    -2.078000000
O     0.314000000     3.433000000    -6.039000000
H     1.238000000     3.182000000    -6.050000000
H     0.323000000     4.383000000    -6.159000000
O    -1.818000000     0.493000000     2.263000000
H    -0.966000000     0.775000000     1.930000000
H    -2.111000000    -0.172000000     1.640000000
O    -5.888000000     4.019000000    -3.979000000
H    -6.058000000     3.078000000    -3.992000000
H    -5.433000000     4.169000000    -3.150000000
O    -3.779000000     3.202000000     2.688000000
H    -3.936000000     2.354000000     3.103000000
H    -3.658000000     2.996000000     1.761000000
O     1.496000000     4.475000000    -3.202000000
H     1.204000000     4.273000000    -4.091000000
H     0.710000000     4.382000000    -2.664000000
O    -0.539000000     4.915000000     1.379000000
H    -0.574000000     4.525000000     0.506000000
H    -0.167000000     4.229000000     1.934000000
O     3.911000000     1.865000000     3.561000000
H     4.362000000     2.088000000     4.376000000
H     3.815000000     2.701000000     3.105000000
O     1.770000000    -5.026000000     4.797000000
H     2.416000000    -4.423000000     4.429000000
H     1.436000000    -5.509000000     4.041000000
O     3.929000000    -4.722000000     2.624000000
H     3.731000000    -5.568000000     2.221000000
H     4.265000000    -4.187000000     1.905000000
O    -2.560000000    -4.872000000    -2.481000000
H    -1.650000000    -4.631000000    -2.307000000
H    -3.014000000    -4.036000000    -2.584000000
O    -2.810000000     1.887000000    -4.185000000
H    -2.411000000     2.214000000    -3.379000000
H    -2.865000000     2.656000000    -4.753000000
O    -2.906000000    -3.844000000     3.056000000
H    -2.066000000    -3.771000000     3.509000000
H    -3.559000000    -3.816000000     3.756000000
O    -3.956000000     4.057000000    -2.052000000
H    -3.077000000     3.679000000    -2.034000000
H    -3.822000000     4.986000000    -1.864000000
