161
-3045.69431
C    -1.215000000    -0.700000000    -0.297000000
H    -2.074000000    -1.346000000    -0.461000000
C    -0.088000000    -1.319000000     0.287000000
H    -0.283000000    -2.283000000     0.750000000
C     1.107000000    -0.555000000     0.469000000
C     2.216000000    -1.097000000     1.181000000
H     2.614000000    -1.679000000     0.347000000
H     2.849000000    -0.251000000     1.458000000
H     1.875000000    -1.643000000     2.063000000
C     1.110000000     0.725000000    -0.009000000
H     1.964000000     1.347000000     0.249000000
C    -0.059000000     1.404000000    -0.532000000
H    -0.020000000     2.433000000    -0.879000000
C    -1.303000000     0.675000000    -0.683000000
C    -2.572000000     1.298000000    -1.142000000
O    -2.645000000     2.489000000    -1.485000000
O    -3.480000000     0.505000000    -1.318000000
O     4.191000000     4.448000000    -1.868000000
H     4.908000000     4.957000000    -2.246000000
H     4.418000000     3.538000000    -2.058000000
O     4.858000000     1.844000000    -2.239000000
H     4.340000000     1.376000000    -2.893000000
H     5.765000000     1.729000000    -2.524000000
O    -8.194000000     0.014000000     1.342000000
H    -7.380000000     0.061000000     0.840000000
H    -8.458000000    -0.904000000     1.286000000
O     4.850000000    -2.013000000     2.295000000
H     4.756000000    -2.937000000     2.527000000
H     4.053000000    -1.807000000     1.806000000
O    -0.909000000     6.346000000     0.527000000
H    -1.018000000     6.775000000     1.376000000
H    -1.512000000     6.809000000    -0.055000000
O    -3.178000000     1.842000000     2.688000000
H    -3.630000000     1.024000000     2.895000000
H    -2.263000000     1.587000000     2.573000000
O     5.503000000    -4.689000000     2.212000000
H     5.119000000    -5.377000000     2.756000000
H     6.438000000    -4.716000000     2.418000000
O    -2.314000000    -4.735000000     1.231000000
H    -2.968000000    -5.003000000     1.877000000
H    -2.801000000    -4.198000000     0.606000000
O     0.063000000    -0.326000000    -4.487000000
H    -0.833000000    -0.156000000    -4.777000000
H     0.434000000     0.543000000    -4.334000000
O     0.622000000    -2.683000000    -3.246000000
H     1.535000000    -2.754000000    -3.525000000
H     0.337000000    -1.831000000    -3.575000000
O    -2.592000000    -6.234000000    -1.207000000
H    -2.912000000    -5.999000000    -0.336000000
H    -2.167000000    -5.440000000    -1.529000000
O    -8.294000000     1.366000000    -1.565000000
H    -8.527000000     2.200000000    -1.158000000
H    -7.605000000     1.588000000    -2.191000000
O    -2.719000000     2.492000000    -4.195000000
H    -3.207000000     3.203000000    -4.609000000
H    -2.704000000     2.722000000    -3.265000000
O    -3.627000000     5.941000000    -2.386000000
H    -3.348000000     6.831000000    -2.174000000
H    -2.835000000     5.412000000    -2.286000000
O    -6.105000000     3.253000000     1.347000000
H    -6.259000000     2.606000000     0.658000000
H    -5.289000000     3.685000000     1.092000000
O     4.334000000    -1.577000000    -2.218000000
H     4.191000000    -2.145000000    -2.975000000
H     3.844000000    -0.780000000    -2.420000000
O    -2.317000000    -0.795000000     4.769000000
H    -1.672000000    -0.437000000     4.160000000
H    -3.078000000    -0.221000000     4.677000000
O     4.278000000     2.399000000     0.887000000
H     4.311000000     3.341000000     0.717000000
H     4.803000000     2.011000000     0.186000000
O    -6.148000000    -2.567000000    -2.394000000
H    -5.390000000    -1.983000000    -2.381000000
H    -6.180000000    -2.898000000    -3.292000000
O    -0.464000000    -3.129000000     4.586000000
H    -1.063000000    -2.395000000     4.724000000
H    -0.862000000    -3.857000000     5.064000000
O     6.259000000    -1.956000000    -0.045000000
H     5.599000000    -1.692000000    -0.686000000
H     5.829000000    -1.845000000     0.802000000
O    -4.394000000    -0.847000000     2.284000000
H    -4.031000000    -1.703000000     2.057000000
H    -4.877000000    -0.577000000     1.503000000
O     4.669000000     1.814000000     3.795000000
H     4.603000000     2.596000000     4.342000000
H     4.894000000     2.148000000     2.926000000
O     1.055000000     2.251000000    -3.693000000
H     1.031000000     2.486000000    -2.765000000
H     0.612000000     2.976000000    -4.135000000
O     2.117000000     6.624000000    -2.107000000
H     2.953000000     7.054000000    -1.927000000
H     2.307000000     5.689000000    -2.029000000
O     4.315000000    -3.237000000     6.374000000
H     3.454000000    -3.312000000     5.961000000
H     4.779000000    -2.590000000     5.842000000
O     4.288000000     5.145000000     0.734000000
H     4.229000000     4.986000000    -0.208000000
H     3.522000000     5.684000000     0.934000000
O    -2.690000000    -0.229000000    -4.931000000
H    -2.899000000     0.104000000    -5.804000000
H    -2.718000000     0.544000000    -4.367000000
O    -1.562000000    -3.918000000    -2.464000000
H    -2.148000000    -3.163000000    -2.418000000
H    -0.748000000    -3.569000000    -2.826000000
O    -5.600000000     0.268000000    -0.015000000
H    -6.038000000     0.692000000    -0.753000000
H    -4.726000000     0.057000000    -0.345000000
O    -7.223000000     0.268000000    -4.219000000
H    -7.591000000     1.133000000    -4.401000000
H    -6.648000000     0.405000000    -3.466000000
O    -0.038000000     3.231000000     4.908000000
H     0.482000000     2.727000000     4.282000000
H     0.209000000     2.879000000     5.763000000
O    -4.892000000    -3.339000000     1.248000000
H    -5.139000000    -3.891000000     1.991000000
H    -5.593000000    -3.470000000     0.610000000
O     5.271000000    -0.687000000     4.907000000
H     5.134000000    -1.263000000     4.155000000
H     5.148000000     0.196000000     4.558000000
O    -4.538000000     6.339000000     1.747000000
H    -4.254000000     5.608000000     1.198000000
H    -3.725000000     6.711000000     2.090000000
O    -0.320000000    -6.110000000     2.511000000
H    -0.972000000    -5.472000000     2.223000000
H    -0.519000000    -6.900000000     2.008000000
O     1.672000000     1.791000000     2.814000000
H     2.028000000     2.160000000     2.006000000
H     2.425000000     1.731000000     3.402000000
O     3.083000000     0.512000000    -3.776000000
H     2.388000000     1.170000000    -3.801000000
H     3.386000000     0.450000000    -4.682000000
O    -4.379000000     4.478000000    -5.280000000
H    -4.965000000     5.215000000    -5.106000000
H    -4.875000000     3.912000000    -5.871000000
O    -0.572000000     0.411000000     2.863000000
H     0.128000000     1.056000000     2.964000000
H    -0.392000000    -0.007000000     2.020000000
O    -1.056000000     4.747000000    -1.739000000
H    -1.004000000     5.281000000    -0.946000000
H    -1.560000000     3.977000000    -1.477000000
O    -3.470000000     3.911000000     0.706000000
H    -3.324000000     3.505000000    -0.149000000
H    -3.214000000     3.239000000     1.337000000
O     2.500000000    -3.374000000     4.446000000
H     2.502000000    -3.984000000     3.708000000
H     1.598000000    -3.058000000     4.492000000
O     2.432000000    -5.539000000     2.547000000
H     1.569000000    -5.202000000     2.305000000
H     2.767000000    -5.940000000     1.745000000
O    -3.233000000    -1.762000000    -2.630000000
H    -3.125000000    -0.935000000    -2.160000000
H    -3.068000000    -1.539000000    -3.546000000
O    -5.468000000     1.415000000    -2.597000000
H    -5.275000000     2.341000000    -2.741000000
H    -4.736000000     1.097000000    -2.068000000
O    -0.099000000     4.778000000    -4.218000000
H    -0.372000000     4.835000000    -3.303000000
H    -0.612000000     5.451000000    -4.664000000
O    -5.628000000     4.168000000    -1.791000000
H    -6.273000000     4.717000000    -2.238000000
H    -4.787000000     4.586000000    -1.979000000
