161
-3030.91453
C     0.650000000     0.756000000    -1.126000000
H     1.078000000     1.259000000    -1.989000000
C     1.162000000    -0.505000000    -0.630000000
H     2.024000000    -1.014000000    -1.053000000
C     0.410000000    -1.094000000     0.397000000
C     0.873000000    -2.404000000     0.883000000
H     0.961000000    -3.039000000    -0.001000000
H     1.831000000    -2.367000000     1.405000000
H     0.051000000    -2.680000000     1.546000000
C    -0.770000000    -0.509000000     0.861000000
H    -1.419000000    -0.957000000     1.609000000
C    -1.113000000     0.734000000     0.526000000
H    -1.930000000     1.227000000     1.047000000
C    -0.489000000     1.332000000    -0.558000000
C    -0.966000000     2.718000000    -0.872000000
O    -1.786000000     3.294000000    -0.132000000
O    -0.562000000     3.252000000    -1.906000000
O     1.213000000     7.331000000    -3.951000000
H     1.065000000     7.485000000    -4.884000000
H     1.023000000     8.173000000    -3.537000000
O    -5.269000000    -1.852000000     3.810000000
H    -4.817000000    -2.224000000     3.052000000
H    -4.771000000    -1.062000000     4.022000000
O    -1.319000000    -0.583000000     6.347000000
H    -0.668000000    -0.473000000     5.654000000
H    -0.999000000    -0.035000000     7.065000000
O     1.460000000    -6.012000000    -3.802000000
H     0.971000000    -5.981000000    -2.980000000
H     2.378000000    -6.052000000    -3.534000000
O     0.822000000    -0.632000000     4.062000000
H     0.886000000     0.096000000     3.444000000
H     1.730000000    -0.887000000     4.227000000
O     4.263000000     0.121000000     1.899000000
H     3.517000000     0.716000000     1.822000000
H     4.012000000    -0.646000000     1.384000000
O     2.246000000     5.220000000    -5.797000000
H     1.837000000     5.896000000    -6.337000000
H     1.837000000     5.319000000    -4.938000000
O    -0.217000000    -1.310000000    -5.734000000
H    -0.451000000    -1.758000000    -4.922000000
H     0.291000000    -0.550000000    -5.451000000
O     2.922000000    -4.661000000     3.642000000
H     2.928000000    -5.505000000     3.191000000
H     1.998000000    -4.501000000     3.836000000
O    -2.272000000    -1.592000000    -2.108000000
H    -1.644000000    -2.156000000    -2.559000000
H    -2.013000000    -0.703000000    -2.348000000
O    -4.413000000     5.899000000     1.484000000
H    -3.884000000     6.161000000     0.731000000
H    -3.864000000     6.099000000     2.243000000
O    -3.341000000     0.316000000     4.657000000
H    -2.931000000     1.179000000     4.704000000
H    -2.728000000    -0.266000000     5.105000000
O     2.760000000    -1.959000000    -4.868000000
H     1.822000000    -1.925000000    -4.682000000
H     2.832000000    -2.526000000    -5.636000000
O     1.481000000     4.619000000    -2.964000000
H     0.697000000     4.109000000    -2.758000000
H     1.184000000     5.529000000    -2.955000000
O     4.501000000    -3.027000000     1.931000000
H     3.969000000    -3.509000000     2.564000000
H     5.124000000    -2.536000000     2.467000000
O    -1.166000000     2.269000000    -4.351000000
H    -0.377000000     1.928000000    -4.771000000
H    -0.848000000     2.695000000    -3.554000000
O     3.267000000    -2.107000000     4.599000000
H     2.924000000    -2.971000000     4.369000000
H     3.852000000    -1.882000000     3.876000000
O    -4.155000000     5.351000000    -4.827000000
H    -3.337000000     5.710000000    -5.171000000
H    -3.884000000     4.785000000    -4.105000000
O    -3.141000000    -3.506000000     2.320000000
H    -2.532000000    -3.968000000     2.896000000
H    -2.707000000    -3.502000000     1.467000000
O    -4.961000000     2.702000000    -1.789000000
H    -4.723000000     3.585000000    -2.071000000
H    -5.635000000     2.837000000    -1.122000000
O    -3.691000000     3.329000000     1.772000000
H    -4.037000000     4.209000000     1.624000000
H    -3.123000000     3.165000000     1.019000000
O     0.331000000    -3.506000000     4.922000000
H    -0.498000000    -3.981000000     4.856000000
H     0.108000000    -2.603000000     4.699000000
O     4.555000000    -0.220000000    -3.365000000
H     3.911000000    -0.906000000    -3.540000000
H     4.036000000     0.581000000    -3.285000000
O     3.664000000    -6.105000000    -2.479000000
H     4.455000000    -6.643000000    -2.508000000
H     3.974000000    -5.215000000    -2.650000000
O     2.333000000     2.342000000     2.348000000
H     1.417000000     2.599000000     2.239000000
H     2.654000000     2.896000000     3.059000000
O    -3.143000000     4.780000000    -2.333000000
H    -2.865000000     5.670000000    -2.119000000
H    -2.509000000     4.217000000    -1.890000000
O    -2.512000000    -5.125000000     4.531000000
H    -2.378000000    -5.941000000     5.014000000
H    -3.327000000    -4.768000000     4.884000000
O    -0.799000000    -3.427000000    -3.821000000
H    -1.410000000    -3.831000000    -4.437000000
H    -0.498000000    -4.152000000    -3.273000000
O    -4.002000000     2.004000000    -4.248000000
H    -3.057000000     2.151000000    -4.257000000
H    -4.305000000     2.442000000    -3.452000000
O    -2.483000000     2.807000000     4.336000000
H    -1.536000000     2.779000000     4.467000000
H    -2.599000000     3.299000000     3.523000000
O    -5.298000000     1.265000000     2.833000000
H    -4.654000000     0.967000000     3.475000000
H    -4.833000000     1.921000000     2.313000000
O     2.506000000    -6.996000000     2.223000000
H     1.757000000    -7.540000000     2.467000000
H     3.240000000    -7.365000000     2.714000000
O     1.246000000     0.919000000    -5.231000000
H     2.010000000     1.055000000    -4.671000000
H     1.498000000     1.293000000    -6.075000000
O     3.035000000     6.323000000    -0.343000000
H     2.349000000     6.088000000     0.282000000
H     3.119000000     5.554000000    -0.907000000
O     3.310000000     3.164000000    -0.062000000
H     2.847000000     2.736000000    -0.782000000
H     2.894000000     2.820000000     0.728000000
O    -0.616000000    -5.742000000    -1.933000000
H    -1.414000000    -6.264000000    -2.015000000
H    -0.137000000    -6.149000000    -1.211000000
O     1.437000000    -6.658000000    -0.281000000
H     2.091000000    -7.171000000    -0.757000000
H     1.856000000    -6.450000000     0.553000000
O     7.083000000    -0.795000000    -2.928000000
H     7.028000000    -1.744000000    -2.819000000
H     6.176000000    -0.495000000    -2.873000000
O    -4.594000000    -0.034000000    -0.793000000
H    -3.709000000    -0.398000000    -0.757000000
H    -4.462000000     0.905000000    -0.921000000
O    -1.493000000     7.369000000    -3.024000000
H    -0.757000000     7.203000000    -3.614000000
H    -2.225000000     7.573000000    -3.606000000
O    -0.202000000     5.788000000    -0.066000000
H    -0.651000000     6.625000000     0.049000000
H    -0.903000000     5.136000000    -0.049000000
O    -2.301000000    -3.622000000    -0.217000000
H    -2.545000000    -2.910000000    -0.809000000
H    -1.636000000    -4.116000000    -0.697000000
O    -0.269000000     3.581000000     2.000000000
H    -1.087000000     3.445000000     1.522000000
H     0.162000000     4.301000000     1.539000000
O     5.048000000    -3.798000000    -3.660000000
H     5.100000000    -2.971000000    -4.138000000
H     4.924000000    -4.461000000    -4.340000000
O    -3.310000000     7.572000000    -0.343000000
H    -3.966000000     8.264000000    -0.427000000
H    -2.474000000     8.038000000    -0.312000000
O     3.310000000     2.465000000    -3.439000000
H     2.721000000     3.178000000    -3.193000000
H     4.107000000     2.904000000    -3.736000000
O    -6.770000000    -1.758000000     1.115000000
H    -5.979000000    -1.533000000     0.626000000
H    -7.014000000    -0.948000000     1.562000000
O    -6.586000000     4.751000000     0.205000000
H    -7.044000000     5.110000000    -0.555000000
H    -5.944000000     5.423000000     0.437000000
