161
-3051.90239
C    -0.811000000    -0.505000000    -1.149000000
H    -1.375000000    -0.900000000    -1.991000000
C    -0.316000000    -1.273000000    -0.122000000
H    -0.531000000    -2.333000000    -0.233000000
C     0.318000000    -0.680000000     0.987000000
C     0.887000000    -1.543000000     2.095000000
H     0.416000000    -2.519000000     2.226000000
H     1.944000000    -1.691000000     1.866000000
H     0.807000000    -1.076000000     3.079000000
C     0.653000000     0.666000000     0.889000000
H     1.155000000     1.168000000     1.713000000
C     0.217000000     1.485000000    -0.136000000
H     0.514000000     2.525000000    -0.030000000
C    -0.593000000     0.919000000    -1.157000000
C    -0.952000000     1.688000000    -2.364000000
O    -0.426000000     2.761000000    -2.621000000
O    -1.909000000     1.308000000    -3.049000000
O     2.775000000     0.260000000    -1.786000000
H     2.098000000    -0.180000000    -2.300000000
H     2.401000000     0.329000000    -0.907000000
O    -2.435000000    -2.696000000     5.449000000
H    -2.342000000    -2.895000000     4.517000000
H    -1.782000000    -2.016000000     5.614000000
O     3.230000000    -1.181000000     5.859000000
H     4.134000000    -0.905000000     6.008000000
H     3.262000000    -1.675000000     5.041000000
O     2.299000000     5.059000000    -1.741000000
H     1.533000000     5.417000000    -2.189000000
H     2.441000000     4.206000000    -2.153000000
O     5.054000000     3.133000000     2.804000000
H     5.695000000     3.568000000     2.243000000
H     4.256000000     3.100000000     2.276000000
O     0.940000000    -6.326000000     4.047000000
H     0.543000000    -6.369000000     3.177000000
H     0.358000000    -6.846000000     4.602000000
O     1.577000000     7.339000000    -4.722000000
H     1.283000000     6.648000000    -4.128000000
H     1.264000000     7.062000000    -5.583000000
O     4.077000000    -2.832000000     3.610000000
H     4.367000000    -3.718000000     3.393000000
H     4.305000000    -2.310000000     2.841000000
O    -4.091000000     0.588000000     4.118000000
H    -3.507000000     0.462000000     3.371000000
H    -3.520000000     0.519000000     4.883000000
O     0.191000000     2.823000000     4.076000000
H     0.181000000     3.613000000     4.616000000
H    -0.565000000     2.919000000     3.497000000
O    -1.930000000     1.533000000    -7.477000000
H    -2.847000000     1.408000000    -7.232000000
H    -1.476000000     1.669000000    -6.645000000
O    -2.140000000    -4.475000000     0.058000000
H    -2.040000000    -5.268000000    -0.470000000
H    -2.452000000    -3.814000000    -0.560000000
O    -0.447000000     6.171000000     0.871000000
H    -0.937000000     5.615000000     0.266000000
H     0.015000000     6.790000000     0.306000000
O     0.054000000    -1.746000000     6.795000000
H     0.697000000    -2.248000000     6.295000000
H     0.309000000    -0.832000000     6.664000000
O    -4.291000000    -3.027000000    -1.074000000
H    -4.273000000    -3.481000000    -1.917000000
H    -4.757000000    -3.625000000    -0.490000000
O     2.087000000     4.008000000     2.220000000
H     1.390000000     4.486000000     1.771000000
H     1.633000000     3.495000000     2.888000000
O     4.549000000    -3.903000000    -0.452000000
H     3.678000000    -4.094000000    -0.800000000
H     4.412000000    -3.171000000     0.149000000
O     3.549000000    -6.532000000     0.416000000
H     3.411000000    -5.588000000     0.344000000
H     4.131000000    -6.745000000    -0.314000000
O    -0.419000000     2.582000000    -5.500000000
H    -0.682000000     3.489000000    -5.655000000
H    -0.511000000     2.464000000    -4.554000000
O     2.241000000     6.876000000     2.364000000
H     2.671000000     6.066000000     2.092000000
H     1.857000000     7.225000000     1.560000000
O    -2.712000000     0.100000000     2.006000000
H    -3.201000000     0.053000000     1.185000000
H    -1.835000000     0.383000000     1.746000000
O     1.117000000     0.620000000     5.950000000
H     1.192000000     1.354000000     5.340000000
H     1.936000000     0.137000000     5.846000000
O    -4.520000000     1.167000000    -6.757000000
H    -5.175000000     1.864000000    -6.747000000
H    -4.837000000     0.549000000    -7.415000000
O     1.564000000    -3.569000000     4.948000000
H     1.155000000    -4.422000000     4.803000000
H     2.430000000    -3.646000000     4.546000000
O    -3.716000000     2.317000000    -0.003000000
H    -3.987000000     1.547000000     0.496000000
H    -4.088000000     2.181000000    -0.875000000
O     4.864000000    -1.396000000     1.415000000
H     4.645000000    -0.468000000     1.335000000
H     5.791000000    -1.444000000     1.182000000
O    -1.370000000     5.163000000    -5.518000000
H    -0.730000000     5.621000000    -6.063000000
H    -2.210000000     5.558000000    -5.752000000
O     0.392000000    -4.715000000    -3.117000000
H    -0.341000000    -4.293000000    -3.565000000
H     0.016000000    -5.508000000    -2.736000000
O    -4.023000000    -2.660000000     2.408000000
H    -3.581000000    -1.815000000     2.326000000
H    -3.313000000    -3.296000000     2.486000000
O     4.904000000    -5.250000000     3.011000000
H     4.454000000    -6.023000000     2.671000000
H     5.551000000    -5.600000000     3.623000000
O     4.707000000     1.229000000     0.624000000
H     4.380000000     0.886000000    -0.207000000
H     5.098000000     2.073000000     0.398000000
O    -1.692000000    -5.944000000     5.533000000
H    -2.285000000    -6.085000000     4.795000000
H    -1.726000000    -5.001000000     5.690000000
O    -4.462000000    -0.400000000    -0.212000000
H    -4.252000000    -1.312000000    -0.412000000
H    -5.407000000    -0.401000000    -0.058000000
O    -7.014000000     2.581000000    -3.897000000
H    -6.802000000     3.515000000    -3.907000000
H    -6.166000000     2.143000000    -3.968000000
O    -4.679000000     5.251000000    -2.059000000
H    -4.122000000     4.718000000    -2.627000000
H    -4.652000000     4.806000000    -1.212000000
O    -2.168000000     3.120000000     2.598000000
H    -2.410000000     4.023000000     2.391000000
H    -2.328000000     2.637000000     1.786000000
O    -1.758000000    -0.533000000    -5.213000000
H    -2.062000000     0.159000000    -4.626000000
H    -2.537000000    -0.784000000    -5.710000000
O     3.989000000     5.632000000     0.307000000
H     4.703000000     6.074000000    -0.153000000
H     3.389000000     5.359000000    -0.387000000
O    -1.633000000    -3.284000000    -4.223000000
H    -2.107000000    -3.666000000    -4.962000000
H    -1.594000000    -2.349000000    -4.421000000
O    -1.145000000    -6.903000000    -0.844000000
H    -0.503000000    -6.974000000    -0.139000000
H    -0.971000000    -7.659000000    -1.404000000
O     1.817000000    -3.942000000    -0.693000000
H     1.154000000    -3.291000000    -0.465000000
H     1.527000000    -4.295000000    -1.534000000
O    -3.219000000     3.609000000    -3.383000000
H    -2.800000000     2.770000000    -3.191000000
H    -2.498000000     4.183000000    -3.643000000
O    -1.874000000    -4.525000000     2.746000000
H    -2.298000000    -5.357000000     2.957000000
H    -1.953000000    -4.450000000     1.795000000
O    -1.689000000     4.154000000    -0.627000000
H    -1.201000000     3.630000000    -1.262000000
H    -2.358000000     3.558000000    -0.289000000
O     1.113000000    -0.614000000    -3.991000000
H     1.470000000    -0.549000000    -4.877000000
H     0.205000000    -0.888000000    -4.119000000
O     0.139000000     5.220000000    -3.384000000
H    -0.350000000     5.146000000    -4.204000000
H    -0.152000000     4.472000000    -2.863000000
O     2.726000000     2.650000000    -3.217000000
H     2.778000000     2.010000000    -2.507000000
H     2.109000000     2.266000000    -3.840000000
O    -4.761000000     0.638000000    -3.056000000
H    -3.851000000     0.890000000    -3.211000000
H    -4.708000000    -0.054000000    -2.397000000
