161
-3051.19001
C     0.040000000    -0.116000000    -1.493000000
H     0.117000000    -0.191000000    -2.575000000
C     0.650000000    -0.972000000    -0.594000000
H     1.278000000    -1.764000000    -0.995000000
C     0.477000000    -0.787000000     0.772000000
C     1.382000000    -1.546000000     1.756000000
H     1.803000000    -0.953000000     2.571000000
H     0.773000000    -2.284000000     2.282000000
H     2.237000000    -1.964000000     1.221000000
C    -0.259000000     0.247000000     1.237000000
H    -0.216000000     0.369000000     2.316000000
C    -0.975000000     1.099000000     0.390000000
H    -1.545000000     1.945000000     0.766000000
C    -0.808000000     0.897000000    -0.976000000
C    -1.432000000     1.780000000    -1.978000000
O    -2.137000000     2.654000000    -1.575000000
O    -1.393000000     1.580000000    -3.131000000
O     2.218000000     1.755000000    -0.719000000
H     2.545000000     1.376000000    -1.535000000
H     1.315000000     1.446000000    -0.656000000
O    -0.595000000     5.740000000    -4.877000000
H    -1.321000000     5.134000000    -5.027000000
H    -0.891000000     6.567000000    -5.257000000
O    -1.710000000    -1.455000000     3.483000000
H    -2.289000000    -1.666000000     2.751000000
H    -2.054000000    -0.633000000     3.832000000
O     1.985000000    -0.147000000     6.169000000
H     1.500000000    -0.860000000     5.753000000
H     2.287000000     0.395000000     5.439000000
O    -1.201000000    -1.176000000     7.510000000
H    -1.002000000    -0.539000000     8.197000000
H    -0.933000000    -0.744000000     6.699000000
O    -1.009000000    -4.409000000     0.565000000
H    -1.799000000    -4.903000000     0.785000000
H    -1.307000000    -3.502000000     0.494000000
O    -3.633000000     6.932000000    -3.268000000
H    -3.911000000     6.154000000    -2.785000000
H    -3.947000000     6.786000000    -4.160000000
O     0.369000000    -1.963000000     5.005000000
H    -0.461000000    -1.748000000     4.581000000
H     0.720000000    -2.690000000     4.491000000
O    -0.373000000     2.253000000     4.700000000
H     0.013000000     2.612000000     3.901000000
H     0.373000000     2.094000000     5.278000000
O    -0.762000000    -2.105000000    -5.173000000
H    -0.762000000    -2.375000000    -6.091000000
H    -1.320000000    -1.328000000    -5.152000000
O     3.300000000    -4.051000000     2.910000000
H     3.575000000    -4.631000000     3.620000000
H     2.345000000    -4.106000000     2.912000000
O     6.875000000    -1.524000000     3.495000000
H     6.150000000    -1.791000000     2.929000000
H     7.257000000    -0.766000000     3.054000000
O    -2.175000000    -2.033000000    -0.670000000
H    -2.025000000    -2.481000000    -1.503000000
H    -1.434000000    -1.432000000    -0.585000000
O    -2.729000000     6.314000000     1.411000000
H    -2.185000000     5.915000000     0.732000000
H    -2.499000000     7.243000000     1.387000000
O    -3.038000000     0.902000000     4.277000000
H    -3.505000000     1.665000000     3.938000000
H    -2.179000000     1.240000000     4.532000000
O     1.744000000    -0.888000000    -4.756000000
H     0.839000000    -1.176000000    -4.879000000
H     1.926000000    -0.340000000    -5.519000000
O     0.494000000     3.466000000    -3.794000000
H    -0.157000000     2.765000000    -3.750000000
H     0.130000000     4.092000000    -4.420000000
O     3.429000000    -6.310000000     1.703000000
H     3.592000000    -5.392000000     1.923000000
H     4.277000000    -6.639000000     1.406000000
O    -4.272000000    -0.298000000    -3.196000000
H    -3.674000000    -0.408000000    -3.935000000
H    -4.180000000     0.622000000    -2.948000000
O     3.046000000     1.761000000     4.447000000
H     3.018000000     1.451000000     3.542000000
H     3.367000000     2.660000000     4.383000000
O    -4.901000000     0.232000000    -6.488000000
H    -4.017000000     0.185000000    -6.123000000
H    -5.338000000     0.907000000    -5.969000000
O    -2.218000000    -4.218000000     4.051000000
H    -1.950000000    -3.299000000     4.039000000
H    -3.158000000    -4.196000000     3.876000000
O    -4.470000000     2.339000000    -0.488000000
H    -5.075000000     2.515000000    -1.208000000
H    -3.612000000     2.589000000    -0.829000000
O     0.924000000    -4.383000000     4.092000000
H     1.135000000    -4.915000000     4.859000000
H     0.068000000    -4.702000000     3.807000000
O     3.857000000    -2.221000000     6.615000000
H     4.562000000    -1.748000000     7.056000000
H     3.156000000    -1.576000000     6.525000000
O     7.302000000    -2.651000000     0.428000000
H     6.595000000    -2.250000000     0.934000000
H     7.800000000    -3.155000000     1.072000000
O     3.158000000     0.762000000    -2.927000000
H     2.519000000     0.159000000    -3.307000000
H     3.190000000     1.496000000    -3.541000000
O     4.872000000    -2.047000000     1.823000000
H     4.289000000    -2.796000000     1.944000000
H     4.390000000    -1.461000000     1.240000000
O     3.462000000     1.502000000     1.735000000
H     2.832000000     1.124000000     1.121000000
H     3.879000000     2.210000000     1.245000000
O    -6.213000000     2.407000000    -5.130000000
H    -6.882000000     2.661000000    -4.494000000
H    -5.383000000     2.619000000    -4.702000000
O    -1.866000000    -3.474000000    -2.973000000
H    -1.318000000    -3.140000000    -3.683000000
H    -1.558000000    -4.369000000    -2.833000000
O     5.441000000    -3.902000000    -1.834000000
H     5.651000000    -4.654000000    -1.279000000
H     5.238000000    -3.199000000    -1.218000000
O    -5.388000000     2.943000000     3.392000000
H    -5.259000000     3.645000000     2.754000000
H    -6.327000000     2.957000000     3.576000000
O    -5.576000000     0.278000000     1.038000000
H    -6.301000000     0.731000000     1.470000000
H    -5.050000000     0.980000000     0.655000000
O    -2.362000000     0.353000000    -5.161000000
H    -2.030000000     0.850000000    -4.414000000
H    -1.640000000     0.353000000    -5.790000000
O     1.599000000     4.580000000     0.824000000
H     1.326000000     4.943000000    -0.019000000
H     1.809000000     3.666000000     0.635000000
O     4.367000000    -0.720000000    -0.667000000
H     4.172000000    -0.447000000    -1.563000000
H     4.819000000     0.030000000    -0.280000000
O     1.500000000    -5.359000000    -0.684000000
H     2.023000000    -5.580000000     0.087000000
H     0.748000000    -4.881000000    -0.334000000
O    -4.122000000     3.034000000    -3.691000000
H    -3.706000000     3.163000000    -2.839000000
H    -3.430000000     3.218000000    -4.326000000
O     1.034000000     5.418000000    -1.644000000
H     1.286000000     6.281000000    -1.973000000
H     1.137000000     4.835000000    -2.397000000
O    -5.124000000     5.082000000     1.747000000
H    -4.221000000     5.399000000     1.747000000
H    -5.645000000     5.843000000     1.489000000
O    -3.745000000    -1.782000000     1.616000000
H    -4.502000000    -1.199000000     1.549000000
H    -3.349000000    -1.761000000     0.745000000
O    -1.489000000     4.899000000    -0.466000000
H    -1.635000000     4.101000000    -0.974000000
H    -0.769000000     5.341000000    -0.916000000
O    -0.486000000     0.688000000    -7.128000000
H    -0.246000000     1.535000000    -7.506000000
H     0.316000000     0.168000000    -7.177000000
O     4.003000000    -2.033000000    -5.398000000
H     4.155000000    -2.904000000    -5.031000000
H     3.225000000    -1.713000000    -4.943000000
O    -2.810000000     4.581000000    -5.638000000
H    -2.967000000     4.279000000    -6.532000000
H    -3.611000000     5.048000000    -5.399000000
O     2.900000000     2.617000000    -4.822000000
H     2.149000000     3.062000000    -4.429000000
H     3.135000000     3.163000000    -5.572000000
O    -4.333000000     4.956000000    -1.522000000
H    -3.467000000     4.644000000    -1.258000000
H    -4.820000000     5.033000000    -0.702000000
