161
-3015.24630
C     0.241000000     0.850000000    -1.139000000
H     0.635000000     1.388000000    -1.998000000
C     0.883000000    -0.326000000    -0.820000000
H     1.668000000    -0.678000000    -1.485000000
C     0.573000000    -1.095000000     0.279000000
C     1.321000000    -2.330000000     0.608000000
H     1.715000000    -2.301000000     1.626000000
H     0.655000000    -3.195000000     0.605000000
H     2.121000000    -2.549000000    -0.103000000
C    -0.499000000    -0.636000000     1.031000000
H    -0.835000000    -1.216000000     1.887000000
C    -1.219000000     0.574000000     0.737000000
H    -2.090000000     0.893000000     1.304000000
C    -0.830000000     1.307000000    -0.386000000
C    -1.343000000     2.679000000    -0.629000000
O    -2.064000000     3.332000000     0.090000000
O    -0.936000000     3.308000000    -1.609000000
O    -3.334000000     1.127000000     3.822000000
H    -3.612000000     1.672000000     3.086000000
H    -3.179000000     1.747000000     4.534000000
O     1.378000000    -2.669000000     5.333000000
H     1.603000000    -1.759000000     5.524000000
H     2.180000000    -3.158000000     5.516000000
O    -5.938000000     4.512000000     3.365000000
H    -5.236000000     4.274000000     2.759000000
H    -5.652000000     4.166000000     4.210000000
O    -5.809000000     3.386000000    -2.933000000
H    -5.146000000     3.073000000    -2.317000000
H    -6.297000000     4.048000000    -2.444000000
O     2.376000000    -1.236000000    -5.311000000
H     1.653000000    -1.799000000    -5.587000000
H     1.988000000    -0.363000000    -5.245000000
O    -5.216000000    -0.953000000     3.950000000
H    -4.435000000    -0.437000000     3.750000000
H    -5.543000000    -1.233000000     3.096000000
O     3.200000000     3.976000000     0.111000000
H     3.031000000     3.046000000     0.265000000
H     4.145000000     4.070000000     0.229000000
O     4.445000000     0.119000000    -2.480000000
H     4.452000000     1.019000000    -2.806000000
H     5.119000000     0.105000000    -1.801000000
O    -2.033000000    -6.597000000     1.467000000
H    -2.624000000    -7.030000000     2.083000000
H    -1.824000000    -5.760000000     1.882000000
O     3.483000000    -4.988000000    -3.475000000
H     2.724000000    -5.139000000    -2.911000000
H     3.661000000    -4.052000000    -3.391000000
O     3.674000000    -2.260000000    -3.225000000
H     3.973000000    -1.394000000    -2.946000000
H     3.171000000    -2.094000000    -4.023000000
O     4.706000000     2.835000000    -2.672000000
H     4.041000000     2.941000000    -3.352000000
H     5.534000000     2.801000000    -3.150000000
O     4.226000000    -5.480000000     0.470000000
H     4.658000000    -5.917000000     1.204000000
H     4.475000000    -4.560000000     0.559000000
O     0.613000000     2.418000000     2.725000000
H     0.948000000     1.773000000     3.348000000
H     1.228000000     2.386000000     1.993000000
O     3.934000000    -0.341000000     3.385000000
H     4.555000000     0.340000000     3.645000000
H     4.093000000    -0.467000000     2.450000000
O    -0.512000000     7.127000000    -4.181000000
H     0.083000000     7.054000000    -4.927000000
H     0.052000000     7.379000000    -3.449000000
O     0.043000000    -5.328000000     4.517000000
H    -0.880000000    -5.229000000     4.752000000
H     0.371000000    -4.431000000     4.455000000
O     0.314000000    -2.715000000    -2.744000000
H     0.749000000    -3.230000000    -2.064000000
H     0.429000000    -3.229000000    -3.544000000
O    -3.882000000     4.812000000     1.535000000
H    -3.371000000     4.160000000     1.054000000
H    -3.347000000     5.605000000     1.505000000
O    -5.615000000     1.772000000     2.182000000
H    -5.838000000     0.961000000     1.725000000
H    -6.433000000     2.268000000     2.203000000
O    -2.844000000     7.246000000     0.898000000
H    -3.441000000     7.956000000     0.660000000
H    -2.044000000     7.691000000     1.179000000
O     4.444000000    -0.715000000     0.733000000
H     5.199000000    -0.380000000     0.249000000
H     4.350000000    -1.619000000     0.434000000
O    -2.706000000     5.983000000    -1.873000000
H    -2.335000000     5.110000000    -1.747000000
H    -2.885000000     6.298000000    -0.987000000
O     1.755000000    -5.188000000    -1.221000000
H     1.059000000    -5.694000000    -0.800000000
H     2.451000000    -5.147000000    -0.565000000
O     1.974000000     0.014000000     5.236000000
H     2.012000000     0.952000000     5.050000000
H     2.736000000    -0.352000000     4.787000000
O     6.979000000    -2.355000000     2.024000000
H     6.143000000    -2.534000000     1.593000000
H     7.600000000    -2.243000000     1.304000000
O    -1.063000000     0.271000000     5.704000000
H    -0.165000000    -0.039000000     5.589000000
H    -1.479000000     0.116000000     4.856000000
O    -6.266000000    -0.542000000     1.025000000
H    -7.130000000    -0.917000000     0.858000000
H    -5.738000000    -0.811000000     0.273000000
O     0.195000000     1.547000000    -4.927000000
H    -0.049000000     1.718000000    -5.837000000
H    -0.346000000     2.149000000    -4.417000000
O     0.207000000     7.183000000    -0.933000000
H    -0.711000000     7.075000000    -0.681000000
H     0.495000000     6.302000000    -1.172000000
O    -2.821000000     5.522000000    -4.590000000
H    -2.967000000     5.731000000    -3.667000000
H    -1.966000000     5.904000000    -4.789000000
O    -7.098000000     2.034000000    -0.469000000
H    -6.903000000     1.181000000    -0.857000000
H    -6.249000000     2.360000000    -0.170000000
O    -2.360000000     6.110000000     4.353000000
H    -2.779000000     6.010000000     3.498000000
H    -1.622000000     5.501000000     4.331000000
O    -2.253000000    -1.284000000    -2.294000000
H    -2.383000000    -1.788000000    -1.490000000
H    -1.345000000    -1.457000000    -2.541000000
O     2.540000000     1.350000000     0.538000000
H     3.238000000     0.718000000     0.367000000
H     1.786000000     1.011000000     0.055000000
O    -2.110000000     2.748000000    -3.885000000
H    -2.583000000     3.511000000    -4.216000000
H    -1.826000000     3.004000000    -3.008000000
O     1.339000000     4.783000000    -1.447000000
H     0.526000000     4.279000000    -1.476000000
H     1.822000000     4.416000000    -0.706000000
O     3.425000000     6.263000000    -2.614000000
H     3.502000000     6.769000000    -1.805000000
H     2.943000000     5.476000000    -2.360000000
O     4.954000000    -3.056000000    -0.811000000
H     5.532000000    -3.688000000    -1.240000000
H     4.467000000    -2.652000000    -1.529000000
O    -4.393000000     2.690000000    -0.778000000
H    -4.162000000     1.763000000    -0.843000000
H    -3.708000000     3.069000000    -0.227000000
O    -0.209000000     4.761000000     1.635000000
H    -1.014000000     4.497000000     1.191000000
H     0.170000000     3.941000000     1.951000000
O    -4.216000000     0.066000000    -1.269000000
H    -4.977000000    -0.429000000    -1.573000000
H    -3.464000000    -0.417000000    -1.612000000
O    -1.924000000    -5.340000000    -1.148000000
H    -1.953000000    -5.742000000    -0.280000000
H    -1.842000000    -4.402000000    -0.975000000
O     4.874000000    -2.362000000     4.862000000
H     5.680000000    -1.936000000     5.153000000
H     4.421000000    -1.694000000     4.347000000
O     2.787000000     2.768000000    -4.422000000
H     2.928000000     2.610000000    -5.355000000
H     1.891000000     2.471000000    -4.261000000
O    -2.948000000     0.205000000    -4.321000000
H    -2.583000000    -0.105000000    -3.493000000
H    -3.045000000     1.150000000    -4.201000000
O    -2.649000000    -2.639000000     0.035000000
H    -2.388000000    -1.931000000     0.624000000
H    -3.538000000    -2.863000000     0.308000000
O    -2.290000000    -4.282000000     3.026000000
H    -2.461000000    -4.235000000     3.967000000
H    -2.983000000    -3.752000000     2.631000000
