161
-3041.97852
C     0.006000000     1.041000000     1.082000000
H     0.130000000     1.763000000     1.885000000
C     0.214000000    -0.302000000     1.252000000
H     0.606000000    -0.721000000     2.175000000
C     0.201000000    -1.179000000     0.175000000
C     0.287000000    -2.699000000     0.466000000
H     0.503000000    -2.868000000     1.523000000
H    -0.469000000    -3.296000000    -0.049000000
H     1.191000000    -3.029000000    -0.048000000
C    -0.164000000    -0.735000000    -1.039000000
H    -0.201000000    -1.410000000    -1.890000000
C    -0.448000000     0.595000000    -1.234000000
H    -0.711000000     1.055000000    -2.183000000
C    -0.193000000     1.510000000    -0.217000000
C    -0.254000000     3.010000000    -0.537000000
O    -0.315000000     3.400000000    -1.684000000
O    -0.389000000     3.872000000     0.321000000
O    -0.449000000     4.775000000     4.889000000
H    -0.433000000     5.685000000     4.593000000
H    -1.010000000     4.327000000     4.256000000
O    -2.768000000     3.530000000    -2.898000000
H    -2.580000000     4.180000000    -3.575000000
H    -1.960000000     3.475000000    -2.387000000
O     2.342000000     5.519000000    -4.711000000
H     2.184000000     6.462000000    -4.657000000
H     1.851000000     5.152000000    -3.976000000
O    -0.187000000    -1.565000000     5.771000000
H     0.321000000    -0.799000000     5.504000000
H    -0.725000000    -1.253000000     6.499000000
O     5.285000000     1.408000000     1.198000000
H     5.581000000     1.071000000     2.044000000
H     4.330000000     1.400000000     1.259000000
O     2.985000000    -3.126000000     4.151000000
H     3.418000000    -3.898000000     4.516000000
H     3.577000000    -2.821000000     3.464000000
O     3.124000000     0.643000000    -1.426000000
H     2.810000000    -0.239000000    -1.226000000
H     2.679000000     1.205000000    -0.792000000
O    -3.372000000     6.036000000     1.930000000
H    -3.091000000     5.205000000     2.314000000
H    -4.249000000     5.857000000     1.590000000
O     3.631000000     5.188000000    -0.935000000
H     3.076000000     4.963000000    -0.188000000
H     4.489000000     5.366000000    -0.551000000
O     0.055000000    -0.858000000    -6.214000000
H    -0.253000000    -0.033000000    -5.839000000
H     0.883000000    -0.634000000    -6.639000000
O    -3.651000000    -2.643000000     1.821000000
H    -3.483000000    -1.753000000     1.510000000
H    -3.476000000    -2.605000000     2.761000000
O     0.632000000     5.662000000    -2.374000000
H     0.123000000     4.921000000    -2.046000000
H     1.482000000     5.579000000    -1.943000000
O    -1.313000000    -5.150000000     2.547000000
H    -1.878000000    -4.708000000     3.181000000
H    -1.054000000    -4.461000000     1.935000000
O     1.342000000     0.583000000     4.993000000
H     2.133000000     0.057000000     5.107000000
H     1.405000000     1.261000000     5.665000000
O    -5.088000000    -4.773000000    -0.437000000
H    -4.791000000    -4.156000000     0.233000000
H    -4.459000000    -5.493000000    -0.395000000
O    -0.534000000     7.068000000    -4.321000000
H    -0.137000000     6.645000000    -3.560000000
H    -1.021000000     6.369000000    -4.757000000
O    -2.069000000    -5.800000000    -1.839000000
H    -1.255000000    -5.538000000    -2.269000000
H    -2.624000000    -5.021000000    -1.882000000
O     3.600000000    -1.793000000    -0.356000000
H     3.702000000    -1.841000000     0.595000000
H     4.474000000    -1.980000000    -0.700000000
O    -1.317000000     1.280000000    -5.087000000
H    -1.849000000     0.571000000    -4.725000000
H    -1.932000000     1.803000000    -5.601000000
O     2.786000000     1.992000000     2.647000000
H     2.976000000     2.624000000     3.340000000
H     2.493000000     1.208000000     3.112000000
O    -2.846000000     6.801000000    -2.850000000
H    -2.468000000     6.426000000    -2.055000000
H    -2.124000000     7.280000000    -3.256000000
O     3.508000000     0.193000000    -4.349000000
H     3.337000000     0.292000000    -3.412000000
H     3.248000000    -0.706000000    -4.547000000
O    -2.973000000    -0.842000000    -4.426000000
H    -2.778000000    -1.760000000    -4.614000000
H    -3.175000000    -0.827000000    -3.490000000
O     3.128000000     4.435000000     3.932000000
H     4.067000000     4.480000000     3.749000000
H     2.716000000     4.438000000     3.068000000
O    -3.345000000    -0.806000000    -1.854000000
H    -2.437000000    -0.571000000    -1.659000000
H    -3.610000000    -1.364000000    -1.123000000
O    -2.334000000    -3.331000000     4.336000000
H    -2.495000000    -3.693000000     5.208000000
H    -1.501000000    -2.868000000     4.419000000
O    -0.739000000    -8.081000000     0.241000000
H    -0.049000000    -7.582000000    -0.196000000
H    -0.338000000    -8.381000000     1.057000000
O     3.043000000    -4.257000000    -1.440000000
H     2.640000000    -4.058000000    -2.285000000
H     3.031000000    -3.425000000    -0.967000000
O    -1.922000000     1.201000000     3.889000000
H    -1.061000000     1.010000000     4.262000000
H    -2.539000000     0.978000000     4.586000000
O     0.638000000    -6.927000000     3.637000000
H     0.369000000    -6.791000000     4.546000000
H     0.090000000    -6.325000000     3.133000000
O    -2.362000000    -3.590000000    -4.540000000
H    -2.797000000    -4.293000000    -5.023000000
H    -1.429000000    -3.728000000    -4.704000000
O     4.708000000    -3.020000000     2.011000000
H     5.565000000    -3.061000000     2.436000000
H     4.580000000    -3.897000000     1.647000000
O     2.672000000    -2.413000000    -4.707000000
H     2.007000000    -2.917000000    -5.176000000
H     3.323000000    -3.063000000    -4.444000000
O    -0.518000000     8.678000000    -0.482000000
H    -0.158000000     8.495000000     0.386000000
H    -0.720000000     7.816000000    -0.845000000
O    -1.670000000     4.761000000    -5.085000000
H    -0.937000000     4.147000000    -5.044000000
H    -1.979000000     4.704000000    -5.989000000
O    -1.818000000     5.875000000    -0.468000000
H    -1.216000000     5.149000000    -0.306000000
H    -2.340000000     5.937000000     0.332000000
O    -3.185000000    -6.356000000     0.938000000
H    -2.630000000    -5.888000000     1.563000000
H    -2.570000000    -6.747000000     0.318000000
O     0.892000000    -3.995000000     5.555000000
H     0.406000000    -3.170000000     5.546000000
H     1.654000000    -3.830000000     4.999000000
O     0.491000000    -5.186000000    -3.267000000
H     1.083000000    -5.921000000    -3.429000000
H     0.466000000    -4.711000000    -4.098000000
O     1.403000000    -6.589000000    -0.903000000
H     0.782000000    -6.206000000    -1.523000000
H     2.218000000    -6.111000000    -1.055000000
O    -5.985000000     0.677000000    -2.706000000
H    -5.093000000     0.447000000    -2.444000000
H    -5.874000000     1.383000000    -3.342000000
O     1.972000000     4.376000000     1.258000000
H     2.236000000     3.457000000     1.301000000
H     1.034000000     4.347000000     1.070000000
O    -4.048000000     2.587000000     0.289000000
H    -4.912000000     2.996000000     0.236000000
H    -3.499000000     3.110000000    -0.295000000
O     2.577000000    -6.128000000     2.175000000
H     2.156000000    -5.751000000     1.403000000
H     1.851000000    -6.397000000     2.737000000
O    -1.840000000     3.649000000     2.699000000
H    -1.826000000     2.692000000     2.730000000
H    -1.413000000     3.869000000     1.872000000
O     0.426000000     3.152000000    -4.638000000
H     0.039000000     2.328000000    -4.935000000
H     0.102000000     3.261000000    -3.744000000
O     0.311000000    -3.467000000    -5.549000000
H     0.354000000    -3.901000000    -6.401000000
H     0.150000000    -2.547000000    -5.756000000
O    -3.086000000    -0.049000000     1.241000000
H    -2.192000000     0.171000000     1.504000000
H    -3.533000000     0.795000000     1.180000000
