161
-3030.73933
C    -0.050000000     1.171000000    -0.987000000
H    -0.045000000     1.998000000    -1.693000000
C     1.104000000     0.592000000    -0.444000000
H     2.064000000     0.888000000    -0.859000000
C     1.047000000    -0.502000000     0.425000000
C     2.306000000    -1.065000000     1.073000000
H     2.591000000    -2.059000000     0.722000000
H     3.118000000    -0.381000000     0.818000000
H     2.233000000    -1.091000000     2.162000000
C    -0.235000000    -0.961000000     0.824000000
H    -0.355000000    -1.786000000     1.522000000
C    -1.328000000    -0.374000000     0.302000000
H    -2.262000000    -0.884000000     0.525000000
C    -1.282000000     0.692000000    -0.540000000
C    -2.581000000     1.098000000    -1.160000000
O    -3.577000000     0.477000000    -0.938000000
O    -2.752000000     2.192000000    -1.747000000
O    -3.165000000    -3.759000000    -0.306000000
H    -3.530000000    -2.942000000    -0.645000000
H    -3.486000000    -4.432000000    -0.907000000
O     3.740000000    -6.242000000     3.345000000
H     4.153000000    -6.596000000     2.557000000
H     4.243000000    -5.452000000     3.545000000
O    -0.178000000     3.541000000     1.990000000
H     0.698000000     3.207000000     1.799000000
H    -0.610000000     2.826000000     2.457000000
O     1.033000000    -1.810000000     5.318000000
H     0.155000000    -2.091000000     5.060000000
H     1.236000000    -2.337000000     6.090000000
O    -2.498000000     4.810000000     1.274000000
H    -2.637000000     5.382000000     2.029000000
H    -1.782000000     4.233000000     1.540000000
O    -7.321000000     3.014000000    -3.125000000
H    -7.592000000     2.687000000    -3.983000000
H    -7.401000000     2.258000000    -2.544000000
O    -6.183000000     2.607000000     3.083000000
H    -5.604000000     1.872000000     2.883000000
H    -6.127000000     3.172000000     2.312000000
O    -5.295000000    -1.470000000    -1.644000000
H    -5.906000000    -0.781000000    -1.906000000
H    -4.559000000    -1.001000000    -1.252000000
O     0.770000000     1.114000000     5.821000000
H     0.465000000     1.113000000     6.728000000
H     1.005000000     0.202000000     5.647000000
O    -2.692000000    -3.918000000     2.555000000
H    -3.070000000    -4.798000000     2.572000000
H    -2.746000000    -3.652000000     1.637000000
O     4.391000000     4.575000000    -2.029000000
H     5.099000000     4.033000000    -1.681000000
H     4.824000000     5.172000000    -2.639000000
O    -0.672000000     3.935000000    -5.979000000
H    -0.881000000     4.277000000    -5.110000000
H    -0.256000000     3.089000000    -5.811000000
O     2.977000000    -0.566000000    -3.249000000
H     3.611000000     0.151000000    -3.265000000
H     3.492000000    -1.347000000    -3.450000000
O     0.928000000     1.866000000    -4.209000000
H     1.343000000     1.121000000    -3.774000000
H     1.263000000     2.632000000    -3.742000000
O     3.825000000    -5.023000000    -1.680000000
H     4.187000000    -4.349000000    -1.105000000
H     2.978000000    -4.673000000    -1.955000000
O     4.745000000     3.634000000     1.324000000
H     4.801000000     4.427000000     0.792000000
H     5.442000000     3.731000000     1.973000000
O    -1.588000000     1.227000000     2.998000000
H    -2.164000000     1.193000000     3.761000000
H    -1.238000000     0.339000000     2.922000000
O     1.827000000     3.658000000    -2.147000000
H     2.705000000     3.894000000    -1.847000000
H     1.273000000     3.765000000    -1.373000000
O     6.284000000    -0.103000000     0.864000000
H     6.109000000     0.228000000    -0.017000000
H     7.142000000    -0.521000000     0.797000000
O     1.105000000    -3.990000000    -2.116000000
H     0.823000000    -3.154000000    -2.487000000
H     0.677000000    -4.029000000    -1.260000000
O    -5.561000000     4.169000000     0.986000000
H    -5.844000000     4.117000000     0.073000000
H    -4.606000000     4.200000000     0.939000000
O     6.535000000     3.070000000    -0.860000000
H     6.236000000     2.810000000     0.011000000
H     7.222000000     2.439000000    -1.076000000
O    -1.441000000     4.597000000    -2.923000000
H    -2.096000000     5.189000000    -2.555000000
H    -1.618000000     3.754000000    -2.505000000
O    -1.537000000    -4.693000000     6.014000000
H    -1.319000000    -3.855000000     5.606000000
H    -1.299000000    -5.348000000     5.358000000
O     2.713000000     2.731000000     4.580000000
H     2.487000000     2.751000000     3.650000000
H     1.986000000     2.263000000     4.993000000
O    -3.265000000     0.278000000     4.864000000
H    -3.994000000    -0.341000000     4.840000000
H    -2.646000000    -0.105000000     5.486000000
O    -6.282000000    -0.701000000     1.067000000
H    -5.537000000    -0.207000000     0.722000000
H    -5.920000000    -1.201000000     1.799000000
O    -4.617000000    -2.371000000     4.122000000
H    -5.387000000    -2.818000000     4.474000000
H    -4.124000000    -3.058000000     3.674000000
O     4.173000000    -3.966000000     6.412000000
H     3.845000000    -3.484000000     5.653000000
H     4.941000000    -3.471000000     6.696000000
O    -1.763000000    -2.211000000    -5.104000000
H    -1.919000000    -1.342000000    -5.474000000
H    -1.193000000    -2.052000000    -4.352000000
O    -7.829000000     0.370000000    -1.909000000
H    -8.437000000    -0.017000000    -2.539000000
H    -8.041000000    -0.058000000    -1.079000000
O     4.868000000     0.233000000     3.543000000
H     4.842000000     1.177000000     3.700000000
H     5.312000000     0.143000000     2.699000000
O     2.392000000     2.483000000     1.931000000
H     2.622000000     1.561000000     1.822000000
H     3.194000000     2.958000000     1.710000000
O    -3.636000000     0.904000000    -4.021000000
H    -3.234000000     1.404000000    -3.310000000
H    -4.338000000     0.408000000    -3.598000000
O    -0.347000000    -4.636000000     0.197000000
H     0.118000000    -4.713000000     1.030000000
H    -1.264000000    -4.516000000     0.444000000
O    -4.765000000     0.637000000    -6.541000000
H    -4.378000000     0.825000000    -5.686000000
H    -5.527000000     0.092000000    -6.345000000
O    -5.022000000     3.784000000    -1.906000000
H    -5.693000000     3.606000000    -2.564000000
H    -4.398000000     3.063000000    -1.999000000
O    -4.077000000     1.418000000     1.541000000
H    -4.004000000     1.347000000     0.589000000
H    -3.223000000     1.744000000     1.823000000
O    -5.430000000    -4.235000000    -1.798000000
H    -5.532000000    -3.283000000    -1.780000000
H    -5.713000000    -4.489000000    -2.676000000
O     2.482000000     5.359000000    -4.935000000
H     3.320000000     5.357000000    -5.397000000
H     2.675000000     4.959000000    -4.087000000
O     4.875000000     1.621000000    -3.886000000
H     4.923000000     1.646000000    -4.841000000
H     5.539000000     2.248000000    -3.597000000
O    -3.370000000     5.866000000    -1.464000000
H    -3.191000000     5.596000000    -0.563000000
H    -3.918000000     5.167000000    -1.820000000
O     3.657000000    -2.119000000     4.498000000
H     2.730000000    -1.880000000     4.504000000
H     4.095000000    -1.367000000     4.098000000
O    -0.434000000    -1.619000000    -2.653000000
H    -0.850000000    -1.427000000    -1.813000000
H     0.412000000    -1.173000000    -2.609000000
O     0.804000000    -4.901000000     2.720000000
H     0.808000000    -4.362000000     3.512000000
H     1.525000000    -5.518000000     2.847000000
O    -1.148000000    -2.575000000     4.208000000
H    -1.702000000    -3.070000000     3.604000000
H    -1.728000000    -1.905000000     4.570000000
O    -1.173000000     0.532000000    -5.598000000
H    -1.988000000     0.990000000    -5.393000000
H    -0.529000000     0.908000000    -4.998000000
O     3.501000000    -0.953000000     7.060000000
H     4.018000000    -1.461000000     6.435000000
H     3.755000000    -0.044000000     6.898000000
