161
-3063.21563
C    -0.410000000     0.777000000    -1.241000000
H    -0.752000000     1.291000000    -2.136000000
C     0.899000000     0.507000000    -0.806000000
H     1.721000000     0.913000000    -1.390000000
C     1.170000000    -0.216000000     0.411000000
C     2.645000000    -0.425000000     0.860000000
H     3.317000000     0.068000000     0.156000000
H     2.739000000    -0.134000000     1.909000000
H     2.929000000    -1.468000000     0.706000000
C     0.091000000    -0.738000000     1.086000000
H     0.321000000    -1.242000000     2.021000000
C    -1.226000000    -0.431000000     0.780000000
H    -2.040000000    -0.902000000     1.325000000
C    -1.489000000     0.301000000    -0.425000000
C    -2.934000000     0.505000000    -0.956000000
O    -3.848000000     0.022000000    -0.346000000
O    -3.141000000     1.170000000    -1.958000000
O     3.334000000     4.118000000    -0.458000000
H     2.438000000     4.441000000    -0.557000000
H     3.841000000     4.620000000    -1.096000000
O    -3.042000000    -2.592000000    -0.184000000
H    -3.393000000    -1.730000000    -0.407000000
H    -2.846000000    -2.998000000    -1.028000000
O    -1.099000000     4.289000000     0.168000000
H    -0.547000000     3.509000000     0.226000000
H    -1.167000000     4.602000000     1.070000000
O     2.584000000    -2.352000000     4.339000000
H     1.801000000    -2.859000000     4.554000000
H     3.020000000    -2.864000000     3.658000000
O    -1.953000000     3.735000000    -2.290000000
H    -2.407000000     2.895000000    -2.223000000
H    -1.483000000     3.820000000    -1.461000000
O    -6.654000000     2.056000000    -3.738000000
H    -7.609000000     2.076000000    -3.795000000
H    -6.365000000     1.832000000    -4.623000000
O    -4.644000000     3.642000000     2.151000000
H    -4.959000000     4.242000000     1.475000000
H    -4.932000000     2.778000000     1.857000000
O    -6.158000000    -0.591000000    -1.660000000
H    -6.524000000    -1.298000000    -1.128000000
H    -5.361000000    -0.331000000    -1.197000000
O    -0.583000000     1.197000000     4.417000000
H    -0.388000000     1.825000000     5.113000000
H    -0.851000000     0.403000000     4.878000000
O    -1.111000000    -3.263000000     4.509000000
H    -1.938000000    -3.175000000     4.036000000
H    -0.816000000    -4.152000000     4.312000000
O     5.395000000     2.170000000    -2.130000000
H     6.054000000     1.787000000    -1.550000000
H     4.570000000     2.068000000    -1.656000000
O     4.405000000    -3.527000000     2.533000000
H     3.930000000    -3.923000000     1.803000000
H     4.814000000    -2.747000000     2.158000000
O     0.832000000     5.481000000    -0.928000000
H     1.086000000     6.228000000    -0.387000000
H     0.025000000     5.158000000    -0.527000000
O    -4.228000000     3.889000000    -3.538000000
H    -4.853000000     3.631000000    -2.860000000
H    -3.456000000     4.182000000    -3.053000000
O     7.149000000    -3.958000000     2.205000000
H     7.260000000    -4.536000000     2.959000000
H     6.213000000    -3.760000000     2.190000000
O     3.267000000    -3.502000000    -1.242000000
H     3.039000000    -3.453000000    -2.171000000
H     4.209000000    -3.332000000    -1.217000000
O    -0.055000000     1.034000000    -5.102000000
H     0.272000000     1.610000000    -4.411000000
H     0.677000000     0.448000000    -5.293000000
O     6.242000000     1.003000000     2.444000000
H     5.642000000     1.736000000     2.302000000
H     6.989000000     1.391000000     2.899000000
O     1.974000000    -4.992000000     0.400000000
H     2.395000000    -4.421000000    -0.242000000
H     1.042000000    -4.786000000     0.330000000
O     4.646000000     3.054000000     1.917000000
H     4.282000000     3.855000000     2.294000000
H     4.299000000     3.030000000     1.025000000
O    -3.151000000     0.991000000     3.375000000
H    -2.633000000     1.609000000     2.859000000
H    -3.142000000     1.352000000     4.261000000
O     0.699000000     3.052000000    -3.424000000
H     1.429000000     3.190000000    -2.820000000
H     0.410000000     3.935000000    -3.655000000
O    -0.783000000    -3.978000000     0.020000000
H    -1.326000000    -3.222000000     0.246000000
H    -1.094000000    -4.677000000     0.595000000
O    -6.649000000     1.129000000     1.154000000
H    -6.407000000     0.229000000     1.371000000
H    -6.354000000     1.245000000     0.251000000
O     7.578000000     0.824000000    -0.116000000
H     7.277000000     0.854000000     0.792000000
H     8.298000000     1.454000000    -0.151000000
O    -0.397000000     6.033000000    -3.552000000
H     0.023000000     6.144000000    -2.699000000
H    -1.100000000     5.404000000    -3.393000000
O     3.045000000     2.467000000     5.982000000
H     3.115000000     1.645000000     5.496000000
H     2.193000000     2.416000000     6.417000000
O    -3.051000000    -3.173000000     2.534000000
H    -2.967000000    -3.097000000     1.584000000
H    -3.450000000    -2.346000000     2.806000000
O    -3.874000000    -2.679000000    -2.952000000
H    -4.661000000    -2.141000000    -2.858000000
H    -3.612000000    -2.563000000    -3.865000000
O    -6.504000000    -1.149000000    -4.312000000
H    -6.555000000    -0.781000000    -3.430000000
H    -6.566000000    -0.390000000    -4.892000000
O    -5.567000000    -3.331000000     1.399000000
H    -5.372000000    -2.394000000     1.380000000
H    -5.085000000    -3.660000000     2.158000000
O     5.656000000    -1.450000000     1.544000000
H     5.903000000    -0.595000000     1.896000000
H     6.358000000    -1.669000000     0.931000000
O     6.010000000    -3.898000000    -1.581000000
H     6.381000000    -3.041000000    -1.368000000
H     6.768000000    -4.479000000    -1.643000000
O    -0.124000000     2.373000000     1.915000000
H    -0.656000000     1.827000000     2.494000000
H     0.691000000     1.885000000     1.807000000
O    -3.782000000     6.240000000    -1.163000000
H    -3.337000000     7.088000000    -1.140000000
H    -3.108000000     5.609000000    -0.910000000
O    -3.605000000     0.969000000    -4.696000000
H    -3.587000000     1.874000000    -5.008000000
H    -3.584000000     1.044000000    -3.742000000
O    -2.465000000     2.722000000    -6.522000000
H    -1.847000000     2.170000000    -6.043000000
H    -2.009000000     2.945000000    -7.333000000
O    -2.104000000    -5.855000000     1.384000000
H    -2.617000000    -6.614000000     1.108000000
H    -2.699000000    -5.355000000     1.943000000
O    -4.201000000    -1.865000000    -5.783000000
H    -4.407000000    -1.154000000    -5.176000000
H    -4.933000000    -1.874000000    -6.399000000
O    -5.621000000     2.438000000    -1.231000000
H    -6.188000000     2.378000000    -1.999000000
H    -4.911000000     1.820000000    -1.408000000
O    -4.631000000    -0.838000000     1.950000000
H    -4.125000000    -0.576000000     1.181000000
H    -4.358000000    -0.229000000     2.636000000
O     4.865000000     0.298000000    -4.370000000
H     4.763000000     1.066000000    -3.808000000
H     5.812000000     0.199000000    -4.471000000
O    -5.879000000     4.928000000     0.084000000
H    -5.279000000     5.418000000    -0.479000000
H    -5.974000000     4.080000000    -0.349000000
O     4.190000000    -0.167000000     4.587000000
H     3.742000000    -0.988000000     4.383000000
H     4.753000000    -0.007000000     3.829000000
O     0.113000000    -2.017000000    -2.398000000
H    -0.242000000    -1.215000000    -2.015000000
H     0.726000000    -2.345000000    -1.739000000
O     2.096000000    -0.616000000    -5.541000000
H     1.628000000    -1.451000000    -5.544000000
H     2.649000000    -0.654000000    -4.760000000
O    -0.138000000    -1.104000000     5.644000000
H    -0.319000000    -1.785000000     4.996000000
H     0.735000000    -1.315000000     5.974000000
O    -1.556000000    -1.035000000    -6.335000000
H    -1.013000000    -0.417000000    -5.845000000
H    -2.454000000    -0.805000000    -6.099000000
