161
-3067.17659
C     0.177000000     1.118000000     0.862000000
H     0.456000000     1.932000000     1.526000000
C     0.875000000    -0.077000000     0.911000000
H     1.637000000    -0.215000000     1.674000000
C     0.665000000    -1.076000000    -0.061000000
C     1.545000000    -2.264000000     0.103000000
H     1.137000000    -2.827000000     0.945000000
H     1.531000000    -2.825000000    -0.834000000
H     2.535000000    -2.051000000     0.510000000
C    -0.323000000    -0.893000000    -1.016000000
H    -0.574000000    -1.641000000    -1.764000000
C    -1.108000000     0.311000000    -1.012000000
H    -1.930000000     0.413000000    -1.715000000
C    -0.851000000     1.303000000    -0.038000000
C    -1.710000000     2.566000000    -0.030000000
O    -2.733000000     2.703000000    -0.691000000
O    -1.337000000     3.529000000     0.638000000
O    -3.457000000     4.923000000     5.032000000
H    -3.262000000     4.936000000     4.095000000
H    -2.710000000     4.471000000     5.426000000
O     3.048000000    -2.360000000     4.901000000
H     3.782000000    -1.753000000     4.996000000
H     2.315000000    -1.920000000     5.333000000
O    -3.151000000     4.725000000     2.253000000
H    -4.063000000     4.659000000     1.972000000
H    -2.663000000     4.216000000     1.606000000
O     4.879000000    -0.802000000    -0.618000000
H     4.290000000    -1.314000000    -1.172000000
H     4.940000000    -1.304000000     0.195000000
O     1.517000000     0.586000000    -3.644000000
H     1.577000000     0.776000000    -2.708000000
H     1.937000000    -0.269000000    -3.743000000
O     1.812000000    -3.263000000    -3.492000000
H     1.182000000    -3.677000000    -2.902000000
H     1.275000000    -2.866000000    -4.177000000
O    -4.695000000    -2.034000000    -1.353000000
H    -4.546000000    -1.433000000    -0.623000000
H    -4.099000000    -2.765000000    -1.188000000
O     4.856000000    -2.278000000     1.497000000
H     5.445000000    -2.305000000     2.251000000
H     4.373000000    -3.103000000     1.540000000
O    -0.836000000     4.620000000     5.959000000
H    -0.506000000     4.690000000     5.063000000
H    -0.308000000     3.928000000     6.356000000
O    -1.260000000    -4.274000000     0.176000000
H    -0.974000000    -3.999000000    -0.695000000
H    -0.555000000    -4.838000000     0.493000000
O     3.415000000     1.960000000     0.920000000
H     3.351000000     1.702000000     0.000000000
H     3.186000000     2.889000000     0.924000000
O    -5.746000000     2.303000000     2.173000000
H    -6.702000000     2.262000000     2.153000000
H    -5.501000000     2.621000000     1.304000000
O    -0.653000000    -3.518000000     3.206000000
H    -1.562000000    -3.279000000     3.027000000
H    -0.412000000    -4.099000000     2.484000000
O     5.891000000     0.884000000     1.914000000
H     5.011000000     1.240000000     1.790000000
H     5.902000000     0.084000000     1.389000000
O     4.017000000    -4.951000000    -5.029000000
H     3.253000000    -4.473000000    -4.707000000
H     4.721000000    -4.303000000    -5.035000000
O     4.163000000    -5.895000000    -0.933000000
H     5.043000000    -6.271000000    -0.933000000
H     4.014000000    -5.633000000    -0.025000000
O    -4.617000000     0.101000000     0.194000000
H    -3.942000000     0.779000000     0.228000000
H    -4.817000000    -0.085000000     1.111000000
O    -1.237000000     6.272000000     0.914000000
H    -1.342000000     5.322000000     0.970000000
H    -2.132000000     6.611000000     0.895000000
O    -2.281000000    -0.217000000     3.937000000
H    -1.460000000     0.144000000     3.603000000
H    -2.845000000     0.546000000     4.060000000
O    -3.874000000    -4.641000000    -1.412000000
H    -3.281000000    -5.324000000    -1.099000000
H    -4.746000000    -4.951000000    -1.169000000
O    -6.032000000     2.425000000    -4.079000000
H    -6.266000000     2.079000000    -3.217000000
H    -5.174000000     2.828000000    -3.951000000
O     3.979000000    -3.323000000    -1.940000000
H     3.137000000    -3.215000000    -2.382000000
H     4.075000000    -4.270000000    -1.835000000
O    -1.792000000     6.186000000    -3.628000000
H    -2.023000000     6.988000000    -3.159000000
H    -1.272000000     5.684000000    -3.000000000
O    -2.538000000    -2.344000000     1.237000000
H    -1.716000000    -1.854000000     1.275000000
H    -2.330000000    -3.121000000     0.718000000
O     0.008000000    -1.739000000     5.255000000
H    -0.147000000    -2.246000000     4.458000000
H     0.121000000    -0.839000000     4.948000000
O     0.499000000     8.135000000    -0.726000000
H    -0.409000000     8.250000000    -0.448000000
H     0.501000000     7.300000000    -1.195000000
O    -2.948000000     2.503000000    -3.381000000
H    -2.356000000     1.756000000    -3.303000000
H    -3.116000000     2.771000000    -2.477000000
O    -4.214000000    -0.590000000    -3.792000000
H    -4.263000000    -0.935000000    -2.901000000
H    -4.939000000     0.034000000    -3.847000000
O     4.640000000    -5.365000000     1.852000000
H     5.543000000    -5.295000000     2.160000000
H     4.117000000    -4.977000000     2.554000000
O    -5.403000000     6.079000000    -2.959000000
H    -6.078000000     6.749000000    -2.849000000
H    -4.723000000     6.319000000    -2.329000000
O    -1.067000000     0.560000000    -4.753000000
H    -0.914000000     0.379000000    -5.681000000
H    -0.199000000     0.501000000    -4.353000000
O     0.423000000    -6.108000000     1.326000000
H     1.104000000    -5.864000000     1.952000000
H     0.526000000    -7.053000000     1.216000000
O    -0.133000000     3.449000000     3.289000000
H    -1.000000000     3.232000000     2.945000000
H     0.326000000     3.846000000     2.549000000
O     2.711000000     1.786000000     4.017000000
H     2.893000000     2.662000000     4.358000000
H     2.991000000     1.822000000     3.102000000
O    -5.142000000     3.720000000    -0.043000000
H    -5.400000000     3.930000000    -0.941000000
H    -4.201000000     3.554000000    -0.097000000
O     3.042000000     1.758000000    -1.722000000
H     2.873000000     2.699000000    -1.668000000
H     3.711000000     1.675000000    -2.402000000
O    -1.582000000     3.824000000    -5.187000000
H    -1.645000000     4.710000000    -4.830000000
H    -2.009000000     3.271000000    -4.532000000
O    -0.170000000     5.345000000    -1.673000000
H     0.618000000     4.811000000    -1.579000000
H    -0.662000000     5.191000000    -0.866000000
O    -0.718000000    -4.266000000    -2.320000000
H    -1.020000000    -5.065000000    -1.888000000
H    -1.356000000    -4.115000000    -3.017000000
O     2.517000000    -4.765000000     3.459000000
H     2.529000000    -3.851000000     3.741000000
H     2.690000000    -5.264000000     4.257000000
O     2.570000000     4.460000000    -1.408000000
H     2.932000000     4.618000000    -0.536000000
H     3.142000000     4.950000000    -1.998000000
O    -6.523000000     1.226000000    -1.570000000
H    -7.326000000     0.799000000    -1.272000000
H    -5.844000000     0.899000000    -0.979000000
O     1.265000000     6.776000000     1.817000000
H     0.379000000     6.581000000     1.512000000
H     1.668000000     7.255000000     1.092000000
O     3.041000000     4.609000000     1.285000000
H     3.825000000     4.573000000     1.833000000
H     2.535000000     5.340000000     1.640000000
O     0.384000000    -2.159000000    -5.537000000
H     0.087000000    -2.907000000    -6.054000000
H     0.484000000    -1.452000000    -6.175000000
O     1.675000000    -7.168000000    -1.700000000
H     1.561000000    -7.823000000    -1.011000000
H     2.505000000    -6.740000000    -1.488000000
O     0.276000000     0.710000000     4.360000000
H     0.183000000     1.658000000     4.458000000
H     1.182000000     0.586000000     4.080000000
O    -2.344000000    -2.371000000    -4.507000000
H    -2.921000000    -1.744000000    -4.071000000
H    -1.512000000    -1.906000000    -4.599000000
