161
-3060.41030
C    -0.130000000     1.104000000     0.905000000
H    -0.072000000     1.786000000     1.749000000
C    -0.089000000    -0.222000000     1.261000000
H    -0.016000000    -0.467000000     2.317000000
C     0.059000000    -1.156000000     0.310000000
C     0.271000000    -2.563000000     0.681000000
H     0.630000000    -3.182000000    -0.144000000
H     1.061000000    -2.673000000     1.426000000
H    -0.636000000    -3.022000000     1.081000000
C    -0.056000000    -0.847000000    -1.006000000
H     0.183000000    -1.633000000    -1.718000000
C    -0.140000000     0.504000000    -1.385000000
H    -0.092000000     0.762000000    -2.440000000
C    -0.246000000     1.507000000    -0.413000000
C    -0.243000000     2.972000000    -0.756000000
O    -0.742000000     3.329000000    -1.841000000
O     0.250000000     3.799000000    -0.023000000
O    -2.261000000     1.553000000    -4.276000000
H    -1.642000000     1.873000000    -4.932000000
H    -1.946000000     1.921000000    -3.450000000
O     2.722000000    -4.168000000     4.570000000
H     3.535000000    -4.297000000     4.082000000
H     3.006000000    -3.897000000     5.443000000
O    -4.850000000     1.229000000    -4.259000000
H    -5.175000000     0.688000000    -4.978000000
H    -3.933000000     1.392000000    -4.478000000
O    -0.439000000    -0.086000000     4.986000000
H     0.446000000    -0.412000000     4.820000000
H    -0.444000000     0.126000000     5.920000000
O     3.496000000    -0.301000000     2.683000000
H     3.788000000     0.604000000     2.575000000
H     4.218000000    -0.733000000     3.139000000
O     2.797000000     5.621000000    -1.998000000
H     3.194000000     6.423000000    -2.338000000
H     1.953000000     5.902000000    -1.646000000
O     1.897000000    -6.970000000    -1.881000000
H     1.548000000    -7.816000000    -2.162000000
H     1.326000000    -6.702000000    -1.162000000
O     4.266000000     0.690000000    -0.948000000
H     3.588000000     1.242000000    -0.559000000
H     4.072000000    -0.190000000    -0.626000000
O    -2.290000000     5.930000000     2.890000000
H    -2.326000000     4.986000000     2.737000000
H    -2.941000000     6.295000000     2.290000000
O    -0.336000000    -0.833000000    -5.428000000
H    -1.181000000    -1.280000000    -5.393000000
H    -0.495000000    -0.062000000    -5.973000000
O     0.616000000     6.362000000    -0.804000000
H     0.208000000     5.496000000    -0.803000000
H     0.720000000     6.578000000     0.123000000
O    -2.210000000    -4.566000000     2.615000000
H    -2.411000000    -4.802000000     3.521000000
H    -2.098000000    -3.616000000     2.635000000
O     2.182000000    -1.199000000     5.022000000
H     2.448000000    -1.149000000     4.104000000
H     3.005000000    -1.222000000     5.509000000
O    -0.326000000     7.990000000    -3.133000000
H    -0.087000000     8.189000000    -2.227000000
H    -0.803000000     7.162000000    -3.078000000
O     3.744000000    -1.708000000     0.408000000
H     3.414000000    -1.148000000     1.111000000
H     4.679000000    -1.796000000     0.591000000
O     3.540000000     2.673000000     2.307000000
H     3.047000000     3.078000000     1.593000000
H     2.998000000     2.815000000     3.083000000
O    -1.813000000     5.830000000    -3.172000000
H    -1.501000000     5.130000000    -2.599000000
H    -2.757000000     5.863000000    -3.019000000
O     3.499000000     0.393000000    -4.692000000
H     2.937000000    -0.350000000    -4.909000000
H     4.390000000     0.064000000    -4.816000000
O     2.874000000     3.101000000    -4.219000000
H     3.067000000     3.375000000    -3.323000000
H     2.811000000     2.148000000    -4.170000000
O    -2.997000000    -2.215000000    -4.502000000
H    -2.480000000    -2.819000000    -5.035000000
H    -3.187000000    -2.705000000    -3.702000000
O     3.477000000     5.884000000     2.136000000
H     3.932000000     5.646000000     1.329000000
H     3.202000000     5.048000000     2.512000000
O    -2.982000000    -3.456000000    -1.810000000
H    -3.372000000    -3.678000000    -0.964000000
H    -2.249000000    -2.880000000    -1.592000000
O    -1.990000000    -2.131000000     3.992000000
H    -2.779000000    -2.226000000     4.526000000
H    -1.537000000    -1.376000000     4.368000000
O    -1.781000000    -6.885000000     0.346000000
H    -1.188000000    -6.195000000     0.643000000
H    -2.186000000    -7.215000000     1.148000000
O     3.295000000    -4.318000000     1.199000000
H     3.224000000    -3.385000000     0.996000000
H     4.140000000    -4.403000000     1.641000000
O     1.268000000     1.806000000     6.525000000
H     1.677000000     2.278000000     5.799000000
H     0.467000000     2.297000000     6.708000000
O    -2.934000000     3.476000000     1.881000000
H    -2.743000000     3.570000000     0.948000000
H    -2.861000000     2.537000000     2.047000000
O    -4.870000000     3.939000000    -3.423000000
H    -5.097000000     3.062000000    -3.731000000
H    -4.824000000     4.467000000    -4.220000000
O     1.487000000    -6.489000000     3.987000000
H     0.660000000    -6.177000000     4.355000000
H     2.082000000    -5.744000000     4.069000000
O    -0.793000000    -4.144000000    -4.972000000
H    -0.442000000    -3.998000000    -4.093000000
H    -0.312000000    -4.904000000    -5.298000000
O     2.766000000     3.920000000     4.699000000
H     1.975000000     4.363000000     4.392000000
H     3.242000000     4.590000000     5.189000000
O    -1.514000000     6.857000000    -5.740000000
H    -1.471000000     6.387000000    -4.907000000
H    -1.270000000     6.204000000    -6.396000000
O     1.442000000     7.389000000     1.497000000
H     2.041000000     6.893000000     2.054000000
H     0.986000000     7.977000000     2.099000000
O    -4.161000000    -4.547000000     0.449000000
H    -3.633000000    -4.579000000     1.246000000
H    -4.138000000    -5.441000000     0.110000000
O    -2.661000000     1.308000000     3.991000000
H    -1.867000000     0.782000000     4.093000000
H    -2.880000000     1.585000000     4.881000000
O     0.155000000    -3.641000000     5.070000000
H    -0.357000000    -3.156000000     4.423000000
H     1.056000000    -3.586000000     4.753000000
O     3.143000000    -2.806000000    -1.999000000
H     3.091000000    -2.168000000    -2.711000000
H     3.431000000    -2.298000000    -1.242000000
O     0.844000000    -3.926000000    -2.926000000
H     0.785000000    -3.901000000    -1.971000000
H     1.691000000    -3.526000000    -3.124000000
O    -4.666000000    -0.438000000    -1.858000000
H    -3.996000000    -0.966000000    -2.293000000
H    -4.744000000     0.345000000    -2.403000000
O     2.725000000     3.265000000    -0.318000000
H     2.963000000     3.993000000    -0.893000000
H     1.792000000     3.390000000    -0.146000000
O    -3.231000000     3.428000000    -0.888000000
H    -2.373000000     3.507000000    -1.304000000
H    -3.853000000     3.671000000    -1.573000000
O     0.956000000    -5.953000000     1.289000000
H     1.713000000    -5.385000000     1.147000000
H     0.972000000    -6.143000000     2.227000000
O    -1.597000000    -6.004000000    -2.353000000
H    -1.825000000    -6.531000000    -1.587000000
H    -1.924000000    -5.129000000    -2.148000000
O     0.955000000     4.571000000     2.484000000
H     1.111000000     5.506000000     2.618000000
H     0.456000000     4.526000000     1.668000000
O     0.125000000     3.355000000    -4.360000000
H     1.062000000     3.378000000    -4.167000000
H    -0.297000000     3.346000000    -3.500000000
O     2.075000000    -1.852000000    -4.687000000
H     2.116000000    -2.476000000    -5.412000000
H     1.204000000    -1.462000000    -4.756000000
O    -3.733000000    -0.067000000     1.221000000
H    -3.779000000    -0.322000000     0.300000000
H    -2.800000000    -0.106000000     1.434000000
O     4.107000000    -5.252000000    -2.851000000
H     3.290000000    -5.740000000    -2.749000000
H     4.019000000    -4.508000000    -2.256000000
