161
-3031.21836
C     0.016000000     1.236000000     0.775000000
H     0.086000000     2.160000000     1.344000000
C     1.128000000     0.511000000     0.449000000
H     2.122000000     0.815000000     0.769000000
C     0.996000000    -0.647000000    -0.315000000
C     2.171000000    -1.572000000    -0.700000000
H     2.863000000    -1.045000000    -1.361000000
H     2.744000000    -1.830000000     0.193000000
H     1.726000000    -2.439000000    -1.192000000
C    -0.262000000    -0.981000000    -0.753000000
H    -0.442000000    -1.864000000    -1.360000000
C    -1.400000000    -0.294000000    -0.345000000
H    -2.374000000    -0.669000000    -0.648000000
C    -1.252000000     0.824000000     0.421000000
C    -2.405000000     1.730000000     0.721000000
O    -3.501000000     1.426000000     0.431000000
O    -2.213000000     2.631000000     1.572000000
O    -2.697000000     6.269000000     4.563000000
H    -2.198000000     5.496000000     4.299000000
H    -3.603000000     5.964000000     4.611000000
O    -4.229000000     4.204000000     2.195000000
H    -4.613000000     3.794000000     2.970000000
H    -3.574000000     3.575000000     1.892000000
O     6.214000000    -1.747000000    -3.926000000
H     5.675000000    -1.318000000    -4.590000000
H     5.726000000    -2.538000000    -3.696000000
O     1.168000000    -1.730000000    -4.409000000
H     0.561000000    -0.991000000    -4.435000000
H     2.023000000    -1.333000000    -4.247000000
O     2.638000000    -3.968000000    -3.896000000
H     2.037000000    -4.530000000    -3.408000000
H     2.144000000    -3.161000000    -4.044000000
O    -3.716000000    -3.444000000    -0.033000000
H    -2.872000000    -3.889000000    -0.101000000
H    -3.631000000    -2.885000000     0.740000000
O     1.695000000     1.435000000     4.408000000
H     1.933000000     0.713000000     3.826000000
H     0.979000000     1.088000000     4.940000000
O    -1.314000000    -5.351000000    -0.778000000
H    -0.794000000    -6.133000000    -0.961000000
H    -0.878000000    -4.944000000    -0.029000000
O     4.658000000     1.331000000    -2.185000000
H     4.216000000     1.066000000    -2.991000000
H     4.554000000     2.282000000    -2.156000000
O    -5.742000000     1.487000000     2.224000000
H    -4.973000000     1.301000000     1.684000000
H    -6.465000000     1.541000000     1.600000000
O     2.089000000    -1.023000000     3.173000000
H     2.761000000    -1.110000000     2.497000000
H     2.531000000    -1.271000000     3.984000000
O     6.912000000    -0.197000000    -1.805000000
H     6.819000000    -0.765000000    -2.570000000
H     6.059000000     0.228000000    -1.717000000
O     4.964000000    -5.036000000    -2.725000000
H     4.902000000    -5.479000000    -1.879000000
H     4.147000000    -4.543000000    -2.798000000
O     4.453000000     1.874000000     4.188000000
H     3.528000000     1.638000000     4.257000000
H     4.881000000     1.373000000     4.883000000
O     4.549000000    -1.897000000     1.921000000
H     5.391000000    -2.339000000     2.035000000
H     4.736000000    -1.177000000     1.319000000
O    -6.992000000     3.923000000     3.658000000
H    -6.722000000     3.203000000     3.088000000
H    -7.948000000     3.904000000     3.632000000
O    -3.751000000     6.993000000     0.956000000
H    -4.634000000     7.292000000     1.173000000
H    -3.585000000     6.275000000     1.567000000
O    -5.237000000    -0.450000000     0.054000000
H    -4.715000000     0.335000000     0.222000000
H    -4.808000000    -1.136000000     0.565000000
O    -0.818000000     7.741000000     1.641000000
H    -0.835000000     6.865000000     1.256000000
H    -1.738000000     7.951000000     1.800000000
O    -3.646000000    -1.349000000     4.816000000
H    -4.565000000    -1.493000000     5.043000000
H    -3.612000000    -0.439000000     4.523000000
O    -2.415000000     1.121000000     3.684000000
H    -2.142000000     1.692000000     2.966000000
H    -2.379000000     1.678000000     4.461000000
O    -0.932000000     4.179000000     6.471000000
H    -0.889000000     4.246000000     5.517000000
H    -0.655000000     3.283000000     6.662000000
O    -3.734000000    -4.793000000    -2.470000000
H    -3.879000000    -4.024000000    -1.918000000
H    -3.128000000    -5.338000000    -1.968000000
O    -1.490000000     3.955000000    -1.818000000
H    -2.220000000     4.455000000    -1.453000000
H    -0.941000000     4.611000000    -2.247000000
O    -3.772000000     2.777000000    -3.374000000
H    -2.920000000     2.746000000    -2.940000000
H    -3.752000000     3.589000000    -3.882000000
O    -0.512000000    -1.758000000     2.299000000
H     0.276000000    -1.319000000     2.620000000
H    -0.477000000    -1.648000000     1.349000000
O    -3.156000000    -1.611000000     1.905000000
H    -2.222000000    -1.752000000     2.058000000
H    -3.486000000    -1.268000000     2.736000000
O    -4.323000000     0.142000000    -2.473000000
H    -4.267000000     1.051000000    -2.768000000
H    -4.508000000     0.206000000    -1.536000000
O    -7.778000000    -0.116000000    -1.518000000
H    -6.879000000    -0.145000000    -1.189000000
H    -7.974000000     0.818000000    -1.596000000
O    -0.673000000     0.413000000    -3.762000000
H    -0.252000000     1.120000000    -3.274000000
H    -0.938000000    -0.216000000    -3.091000000
O     0.094000000    -4.486000000     1.547000000
H     0.921000000    -4.810000000     1.905000000
H     0.058000000    -3.569000000     1.819000000
O     4.590000000    -5.825000000     0.028000000
H     4.063000000    -6.580000000    -0.234000000
H     4.387000000    -5.702000000     0.955000000
O     3.430000000     3.140000000     0.771000000
H     3.213000000     2.923000000     1.677000000
H     2.713000000     3.705000000     0.482000000
O    -0.871000000     4.391000000     3.711000000
H    -1.349000000     4.307000000     2.886000000
H    -0.006000000     4.711000000     3.456000000
O     1.915000000     3.910000000     3.586000000
H     2.714000000     4.154000000     4.053000000
H     1.494000000     3.265000000     4.154000000
O     4.991000000     0.443000000     0.561000000
H     5.832000000     0.759000000     0.889000000
H     4.771000000     1.043000000    -0.152000000
O    -5.356000000     2.795000000    -0.720000000
H    -4.924000000     3.623000000    -0.931000000
H    -4.724000000     2.328000000    -0.174000000
O     0.665000000     2.377000000    -2.209000000
H     0.842000000     2.125000000    -1.303000000
H    -0.142000000     2.890000000    -2.162000000
O    -3.779000000     5.070000000    -1.226000000
H    -4.323000000     5.327000000    -1.971000000
H    -3.785000000     5.835000000    -0.651000000
O    -1.389000000     5.225000000     0.875000000
H    -0.656000000     5.093000000     0.274000000
H    -1.828000000     4.375000000     0.910000000
O     2.120000000    -5.905000000    -2.098000000
H     1.392000000    -6.402000000    -1.724000000
H     2.580000000    -5.547000000    -1.339000000
O    -7.853000000     2.651000000    -1.946000000
H    -7.139000000     2.640000000    -1.307000000
H    -7.996000000     3.579000000    -2.130000000
O     1.281000000     4.747000000    -0.597000000
H     1.556000000     5.643000000    -0.795000000
H     1.355000000     4.284000000    -1.432000000
O     4.679000000     4.094000000    -1.535000000
H     4.219000000     3.843000000    -0.734000000
H     5.544000000     4.375000000    -1.236000000
O     4.272000000    -0.713000000    -5.735000000
H     4.868000000    -0.546000000    -6.465000000
H     3.742000000     0.082000000    -5.672000000
O    -2.427000000     1.097000000    -5.380000000
H    -3.093000000     1.379000000    -4.753000000
H    -1.707000000     0.777000000    -4.836000000
O    -5.707000000    -2.075000000    -3.307000000
H    -6.466000000    -1.740000000    -2.831000000
H    -5.044000000    -1.392000000    -3.214000000
O    -0.639000000    -3.528000000    -5.257000000
H    -0.078000000    -2.847000000    -4.885000000
H    -0.661000000    -3.334000000    -6.194000000
