161
-3048.13340
C    -0.145000000     1.467000000     0.157000000
H    -0.088000000     2.520000000     0.421000000
C     0.908000000     0.705000000     0.655000000
H     1.663000000     1.279000000     1.186000000
C     0.972000000    -0.690000000     0.369000000
C     2.114000000    -1.584000000     0.934000000
H     2.450000000    -2.342000000     0.223000000
H     2.881000000    -0.892000000     1.287000000
H     1.761000000    -2.189000000     1.772000000
C    -0.073000000    -1.259000000    -0.406000000
H    -0.043000000    -2.343000000    -0.475000000
C    -1.145000000    -0.420000000    -0.901000000
H    -1.924000000    -0.953000000    -1.440000000
C    -1.210000000     0.925000000    -0.618000000
C    -2.350000000     1.720000000    -0.993000000
O    -3.273000000     1.178000000    -1.530000000
O    -2.495000000     2.878000000    -0.645000000
O    -2.271000000    -3.696000000     4.901000000
H    -1.411000000    -3.987000000     4.596000000
H    -2.448000000    -4.237000000     5.670000000
O    -5.801000000     0.309000000    -2.393000000
H    -5.911000000     1.017000000    -3.027000000
H    -4.870000000     0.328000000    -2.173000000
O     4.997000000     0.446000000    -3.873000000
H     4.710000000     1.170000000    -4.429000000
H     4.378000000     0.444000000    -3.144000000
O     2.947000000    -4.755000000     4.458000000
H     3.711000000    -5.087000000     3.986000000
H     3.219000000    -3.896000000     4.781000000
O     3.105000000    -0.728000000    -1.989000000
H     2.426000000    -1.346000000    -2.258000000
H     2.672000000    -0.155000000    -1.356000000
O    -4.676000000    -4.648000000    -1.811000000
H    -4.970000000    -3.756000000    -1.626000000
H    -5.142000000    -4.893000000    -2.611000000
O     3.369000000    -4.543000000    -2.062000000
H     2.989000000    -4.740000000    -1.206000000
H     3.864000000    -3.735000000    -1.924000000
O    -0.117000000    -4.638000000     0.737000000
H    -0.714000000    -4.252000000     1.378000000
H    -0.669000000    -4.825000000    -0.022000000
O     3.725000000     2.115000000     3.522000000
H     4.247000000     2.667000000     2.940000000
H     4.168000000     2.175000000     4.369000000
O     2.472000000    -5.367000000     0.179000000
H     2.205000000    -6.270000000     0.007000000
H     1.702000000    -4.963000000     0.580000000
O    -2.378000000    -5.746000000    -1.041000000
H    -2.592000000    -6.611000000    -0.692000000
H    -3.201000000    -5.259000000    -0.994000000
O    -6.058000000     3.125000000     3.246000000
H    -5.614000000     3.749000000     2.672000000
H    -5.407000000     2.909000000     3.914000000
O     5.094000000    -1.703000000     3.354000000
H     4.897000000    -2.604000000     3.098000000
H     5.634000000    -1.364000000     2.640000000
O     5.225000000    -5.355000000     0.203000000
H     4.304000000    -5.613000000     0.225000000
H     5.222000000    -4.486000000    -0.197000000
O     1.161000000    -2.083000000    -3.566000000
H     0.219000000    -2.222000000    -3.465000000
H     1.234000000    -1.202000000    -3.935000000
O     6.254000000    -1.332000000     1.094000000
H     7.185000000    -1.148000000     0.969000000
H     6.029000000    -1.926000000     0.379000000
O    -3.068000000     0.815000000    -4.148000000
H    -3.091000000     0.861000000    -3.192000000
H    -3.721000000     1.454000000    -4.434000000
O    -2.452000000     5.669000000     1.711000000
H    -3.037000000     4.991000000     1.373000000
H    -3.013000000     6.439000000     1.814000000
O    -4.489000000     0.986000000     0.982000000
H    -3.927000000     1.099000000     0.216000000
H    -5.379000000     1.094000000     0.645000000
O    -1.481000000     3.688000000     3.408000000
H    -1.804000000     4.476000000     2.973000000
H    -0.529000000     3.737000000     3.318000000
O    -2.351000000    -1.274000000    -5.501000000
H    -2.300000000    -2.082000000    -4.991000000
H    -2.713000000    -0.629000000    -4.892000000
O    -0.644000000     3.475000000    -3.842000000
H    -0.565000000     3.191000000    -4.752000000
H    -1.583000000     3.440000000    -3.661000000
O     3.245000000    -0.351000000     4.773000000
H     3.325000000     0.495000000     4.332000000
H     3.611000000    -0.981000000     4.151000000
O    -3.749000000     1.966000000     4.223000000
H    -3.951000000     1.246000000     3.626000000
H    -2.968000000     2.375000000     3.850000000
O    -3.595000000     3.875000000    -2.885000000
H    -4.404000000     4.303000000    -2.606000000
H    -3.218000000     3.524000000    -2.078000000
O    -4.932000000    -1.839000000    -0.427000000
H    -4.740000000    -1.007000000    -0.859000000
H    -5.587000000    -1.618000000     0.236000000
O    -5.463000000     2.460000000    -4.359000000
H    -5.547000000     2.903000000    -5.203000000
H    -4.874000000     3.020000000    -3.852000000
O    -4.611000000    -3.436000000    -5.622000000
H    -4.190000000    -2.622000000    -5.346000000
H    -3.897000000    -3.968000000    -5.973000000
O    -2.521000000    -3.799000000     1.859000000
H    -2.789000000    -3.091000000     1.273000000
H    -2.629000000    -3.436000000     2.738000000
O     0.065000000     1.383000000     5.668000000
H    -0.599000000     0.932000000     5.147000000
H     0.701000000     1.697000000     5.026000000
O     4.622000000     2.746000000    -1.260000000
H     3.925000000     2.562000000    -1.890000000
H     5.328000000     2.147000000    -1.503000000
O     0.071000000    -4.272000000     4.067000000
H     1.019000000    -4.339000000     4.182000000
H    -0.191000000    -5.130000000     3.735000000
O     4.906000000    -2.406000000    -1.364000000
H     4.494000000    -1.561000000    -1.543000000
H     5.534000000    -2.522000000    -2.077000000
O     6.814000000     2.249000000     1.602000000
H     6.047000000     2.820000000     1.639000000
H     6.515000000     1.476000000     1.124000000
O     4.262000000     3.788000000     1.195000000
H     3.642000000     4.503000000     1.045000000
H     4.345000000     3.361000000     0.342000000
O    -1.143000000     0.472000000     3.197000000
H    -0.529000000    -0.249000000     3.056000000
H    -1.084000000     0.997000000     2.399000000
O     1.223000000     3.834000000     3.731000000
H     1.464000000     4.719000000     4.004000000
H     2.043000000     3.341000000     3.766000000
O    -0.617000000     5.103000000    -0.391000000
H    -1.009000000     5.567000000     0.349000000
H    -1.257000000     4.427000000    -0.616000000
O     2.060000000     2.230000000    -3.322000000
H     1.139000000     2.381000000    -3.106000000
H     2.369000000     3.074000000    -3.652000000
O    -5.974000000     4.922000000    -2.023000000
H    -6.427000000     4.472000000    -1.310000000
H    -6.142000000     5.851000000    -1.865000000
O    -4.880000000     4.183000000     0.823000000
H    -4.319000000     3.793000000     0.152000000
H    -5.760000000     3.873000000     0.610000000
O    -1.353000000    -3.315000000    -3.105000000
H    -1.301000000    -3.872000000    -2.328000000
H    -1.604000000    -3.911000000    -3.811000000
O     0.535000000     5.787000000    -2.862000000
H     0.208000000     5.630000000    -1.977000000
H     0.433000000     4.945000000    -3.307000000
O    -3.140000000     1.839000000    -6.788000000
H    -2.438000000     1.436000000    -6.277000000
H    -3.795000000     1.148000000    -6.882000000
O    -2.271000000     5.223000000    -5.321000000
H    -2.698000000     4.874000000    -4.539000000
H    -1.464000000     5.622000000    -4.995000000
O     2.245000000     6.478000000     0.973000000
H     2.516000000     7.066000000     1.678000000
H     1.440000000     6.072000000     1.295000000
O     2.088000000    -4.477000000    -4.468000000
H     1.667000000    -3.626000000    -4.353000000
H     2.363000000    -4.730000000    -3.587000000
O    -3.312000000    -0.887000000     2.459000000
H    -3.560000000    -0.103000000     1.968000000
H    -2.525000000    -0.629000000     2.939000000
