161
-3036.03575
C    -0.180000000     1.086000000     0.964000000
H    -0.350000000     1.778000000     1.785000000
C     0.692000000     0.032000000     1.140000000
H     1.299000000    -0.108000000     2.031000000
C     0.707000000    -1.009000000     0.158000000
C     1.644000000    -2.216000000     0.390000000
H     1.961000000    -2.592000000    -0.585000000
H     2.513000000    -1.847000000     0.938000000
H     1.041000000    -2.959000000     0.915000000
C     0.036000000    -0.833000000    -1.031000000
H     0.147000000    -1.579000000    -1.814000000
C    -0.802000000     0.348000000    -1.243000000
H    -1.435000000     0.425000000    -2.124000000
C    -0.901000000     1.269000000    -0.246000000
C    -1.856000000     2.399000000    -0.376000000
O    -2.431000000     2.630000000    -1.411000000
O    -2.083000000     3.168000000     0.503000000
O     1.698000000    -1.934000000     5.861000000
H     2.580000000    -1.626000000     6.070000000
H     1.760000000    -2.888000000     5.909000000
O    -6.462000000     3.239000000    -4.308000000
H    -6.980000000     3.270000000    -3.503000000
H    -5.612000000     2.897000000    -4.033000000
O    -5.001000000     2.211000000    -0.212000000
H    -4.845000000     1.550000000     0.462000000
H    -4.159000000     2.657000000    -0.310000000
O    -0.714000000    -1.756000000     4.582000000
H     0.153000000    -1.893000000     4.965000000
H    -0.749000000    -0.818000000     4.395000000
O     3.406000000     1.339000000     3.692000000
H     3.209000000     1.849000000     4.477000000
H     2.775000000     1.646000000     3.042000000
O    -1.734000000    -3.508000000    -0.162000000
H    -1.627000000    -3.419000000     0.785000000
H    -2.353000000    -2.818000000    -0.400000000
O     6.287000000     1.235000000     3.509000000
H     6.593000000     2.129000000     3.353000000
H     5.349000000     1.267000000     3.319000000
O     0.564000000     4.157000000     4.122000000
H    -0.101000000     4.262000000     3.443000000
H     1.346000000     4.572000000     3.758000000
O     3.301000000    -5.156000000    -1.261000000
H     2.736000000    -5.109000000    -2.032000000
H     3.971000000    -4.491000000    -1.414000000
O     5.001000000    -1.161000000     0.738000000
H     5.694000000    -0.505000000     0.669000000
H     4.222000000    -0.724000000     0.394000000
O    -6.022000000     1.686000000     2.489000000
H    -5.207000000     2.126000000     2.731000000
H    -6.461000000     2.302000000     1.903000000
O     4.587000000    -1.299000000     3.506000000
H     4.119000000    -0.473000000     3.622000000
H     4.802000000    -1.324000000     2.574000000
O     3.629000000     0.902000000    -1.103000000
H     2.993000000     1.440000000    -0.631000000
H     4.091000000     1.521000000    -1.669000000
O     2.669000000     3.169000000     5.710000000
H     1.787000000     3.372000000     5.400000000
H     3.023000000     4.012000000     5.994000000
O     3.480000000    -1.359000000    -4.618000000
H     4.065000000    -0.996000000    -3.952000000
H     3.730000000    -0.911000000    -5.426000000
O     3.537000000    -3.984000000     3.682000000
H     4.061000000    -3.225000000     3.430000000
H     3.270000000    -4.378000000     2.851000000
O    -1.563000000    -4.223000000     2.895000000
H    -1.512000000    -3.646000000     3.657000000
H    -0.783000000    -4.774000000     2.959000000
O    -4.190000000     2.133000000    -3.280000000
H    -3.670000000     2.401000000    -2.523000000
H    -3.903000000     1.238000000    -3.463000000
O    -3.165000000     7.429000000     1.416000000
H    -3.928000000     6.875000000     1.254000000
H    -3.243000000     8.137000000     0.777000000
O     0.645000000    -5.969000000     3.316000000
H     0.399000000    -6.839000000     3.630000000
H     1.369000000    -6.128000000     2.711000000
O     5.160000000    -0.805000000    -2.675000000
H     4.600000000    -0.203000000    -2.184000000
H     6.025000000    -0.705000000    -2.279000000
O    -2.963000000    -0.768000000     1.155000000
H    -3.040000000    -0.282000000     1.976000000
H    -2.335000000    -0.266000000     0.637000000
O    -3.857000000    -0.719000000    -3.668000000
H    -4.293000000    -0.708000000    -4.520000000
H    -4.571000000    -0.803000000    -3.035000000
O    -0.992000000     3.144000000    -3.791000000
H    -0.131000000     3.051000000    -3.385000000
H    -1.578000000     3.356000000    -3.064000000
O     1.554000000     0.679000000    -3.491000000
H     1.912000000     0.012000000    -2.906000000
H     1.693000000     1.505000000    -3.027000000
O     1.570000000     0.873000000    -6.360000000
H     0.769000000     1.282000000    -6.688000000
H     1.440000000     0.818000000    -5.413000000
O    -1.367000000     2.235000000     4.944000000
H    -0.942000000     3.086000000     4.831000000
H    -0.864000000     1.806000000     5.637000000
O     0.874000000    -4.856000000    -3.377000000
H     0.593000000    -3.973000000    -3.618000000
H     0.389000000    -5.051000000    -2.575000000
O    -3.416000000     4.970000000    -3.618000000
H    -2.946000000     4.906000000    -2.787000000
H    -3.267000000     4.126000000    -4.044000000
O    -6.717000000     4.113000000    -1.525000000
H    -6.416000000     5.000000000    -1.327000000
H    -6.144000000     3.545000000    -1.010000000
O     5.122000000    -3.515000000    -2.787000000
H     5.239000000    -2.569000000    -2.698000000
H     4.799000000    -3.633000000    -3.681000000
O    -1.508000000    -0.914000000    -5.081000000
H    -1.423000000    -0.048000000    -5.478000000
H    -2.095000000    -0.780000000    -4.337000000
O     2.665000000     2.934000000     0.548000000
H     2.517000000     3.880000000     0.568000000
H     3.588000000     2.831000000     0.779000000
O    -2.951000000     0.401000000     3.510000000
H    -2.625000000     1.155000000     4.001000000
H    -3.441000000    -0.111000000     4.154000000
O     1.051000000    -3.448000000    -6.906000000
H     0.158000000    -3.235000000    -7.177000000
H     1.139000000    -3.054000000    -6.038000000
O    -1.026000000     5.111000000     1.884000000
H    -1.759000000     5.712000000     2.017000000
H    -1.382000000     4.419000000     1.325000000
O    -0.560000000     2.633000000    -6.338000000
H    -1.278000000     2.924000000    -6.901000000
H    -0.907000000     2.708000000    -5.449000000
O    -4.045000000     3.455000000     2.815000000
H    -4.646000000     4.200000000     2.810000000
H    -3.628000000     3.478000000     1.954000000
O    -2.241000000    -3.739000000    -4.508000000
H    -2.373000000    -3.790000000    -3.562000000
H    -2.009000000    -2.824000000    -4.669000000
O    -1.700000000     5.615000000    -1.026000000
H    -2.400000000     5.955000000    -0.469000000
H    -1.727000000     4.668000000    -0.895000000
O     1.607000000     5.363000000     0.918000000
H     1.348000000     6.003000000     0.255000000
H     0.795000000     5.155000000     1.380000000
O    -6.582000000     0.805000000    -2.359000000
H    -7.027000000     0.344000000    -1.647000000
H    -5.842000000     1.240000000    -1.936000000
O    -0.442000000    -5.524000000    -1.057000000
H    -0.838000000    -4.764000000    -0.631000000
H    -0.597000000    -6.248000000    -0.450000000
O     2.986000000    -5.149000000     1.375000000
H     3.326000000    -5.417000000     0.521000000
H     2.356000000    -4.457000000     1.175000000
O     0.547000000     7.120000000    -1.214000000
H    -0.227000000     6.576000000    -1.072000000
H     0.226000000     7.869000000    -1.716000000
O     1.480000000     2.881000000    -1.847000000
H     1.715000000     3.754000000    -2.162000000
H     1.830000000     2.844000000    -0.957000000
O     0.983000000    -2.195000000    -4.241000000
H     1.917000000    -2.023000000    -4.124000000
H     0.628000000    -1.373000000    -4.579000000
O     7.491000000    -3.042000000     1.417000000
H     8.198000000    -2.925000000     0.781000000
H     6.767000000    -2.523000000     1.068000000
