161
-3042.61862
C    -0.816000000     0.589000000     1.125000000
H    -1.275000000     0.957000000     2.039000000
C     0.557000000     0.753000000     0.897000000
H     1.056000000     1.358000000     1.650000000
C     1.199000000     0.186000000    -0.176000000
C     2.702000000     0.279000000    -0.418000000
H     3.092000000    -0.203000000    -1.317000000
H     2.964000000     1.332000000    -0.545000000
H     3.248000000    -0.077000000     0.458000000
C     0.452000000    -0.479000000    -1.104000000
H     0.949000000    -1.130000000    -1.819000000
C    -0.916000000    -0.661000000    -0.897000000
H    -1.504000000    -1.286000000    -1.564000000
C    -1.585000000    -0.177000000     0.231000000
C    -2.969000000    -0.533000000     0.447000000
O    -3.656000000    -0.704000000    -0.519000000
O    -3.493000000    -0.209000000     1.515000000
O    -3.508000000    -0.694000000    -3.137000000
H    -3.498000000     0.231000000    -3.385000000
H    -3.579000000    -0.685000000    -2.182000000
O    -5.604000000     1.844000000    -0.219000000
H    -5.068000000     1.087000000     0.018000000
H    -6.324000000     1.834000000     0.412000000
O    -7.454000000     0.787000000     1.415000000
H    -6.985000000    -0.042000000     1.328000000
H    -8.202000000     0.582000000     1.977000000
O    -4.414000000    -5.358000000    -2.867000000
H    -4.309000000    -4.869000000    -2.050000000
H    -3.620000000    -5.166000000    -3.365000000
O     4.371000000     1.594000000     3.507000000
H     5.071000000     1.767000000     4.137000000
H     3.807000000     0.957000000     3.945000000
O     4.169000000     4.214000000     2.751000000
H     4.271000000     3.323000000     3.085000000
H     4.341000000     4.139000000     1.812000000
O     0.341000000    -3.071000000    -6.081000000
H     0.209000000    -3.798000000    -6.690000000
H    -0.483000000    -3.010000000    -5.599000000
O    -0.660000000    -0.137000000     6.044000000
H    -0.777000000     0.812000000     6.001000000
H    -1.245000000    -0.482000000     5.370000000
O     7.136000000     2.711000000    -1.332000000
H     6.412000000     2.659000000    -1.956000000
H     7.250000000     3.648000000    -1.175000000
O     0.195000000     0.515000000    -4.416000000
H     0.816000000     1.146000000    -4.052000000
H     0.592000000    -0.339000000    -4.244000000
O     6.388000000    -1.339000000    -0.369000000
H     5.995000000    -0.490000000    -0.167000000
H     6.801000000    -1.214000000    -1.223000000
O    -4.169000000    -3.218000000    -1.081000000
H    -5.101000000    -3.010000000    -1.144000000
H    -3.748000000    -2.379000000    -0.898000000
O    -1.070000000     3.685000000    -1.465000000
H    -1.195000000     3.124000000    -2.231000000
H    -0.514000000     4.397000000    -1.779000000
O     3.481000000    -3.777000000     3.527000000
H     3.704000000    -3.687000000     4.454000000
H     3.966000000    -3.074000000     3.095000000
O     1.711000000     2.738000000    -3.961000000
H     1.650000000     3.631000000    -3.623000000
H     2.628000000     2.641000000    -4.217000000
O    -4.206000000    -2.350000000     5.337000000
H    -3.878000000    -3.241000000     5.216000000
H    -3.597000000    -1.801000000     4.843000000
O     4.242000000    -3.063000000    -2.031000000
H     4.639000000    -3.269000000    -1.184000000
H     3.401000000    -3.520000000    -2.019000000
O    -6.332000000     1.633000000     4.552000000
H    -6.161000000     2.562000000     4.705000000
H    -7.224000000     1.607000000     4.207000000
O    -0.684000000    -3.922000000    -0.941000000
H    -1.283000000    -4.433000000    -0.397000000
H    -0.302000000    -3.282000000    -0.341000000
O    -3.196000000     4.441000000     2.452000000
H    -3.276000000     3.542000000     2.769000000
H    -3.737000000     4.466000000     1.663000000
O    -1.531000000    -3.073000000    -3.720000000
H    -0.954000000    -3.394000000    -3.027000000
H    -2.336000000    -2.827000000    -3.266000000
O     6.489000000    -3.273000000    -3.489000000
H     5.675000000    -3.350000000    -2.993000000
H     6.787000000    -4.176000000    -3.603000000
O     0.934000000    -2.485000000     4.046000000
H     0.565000000    -2.443000000     4.928000000
H     1.688000000    -1.897000000     4.073000000
O    -1.545000000     2.803000000    -4.447000000
H    -1.187000000     3.358000000    -5.141000000
H    -0.933000000     2.070000000    -4.387000000
O    -2.553000000    -0.267000000    -6.004000000
H    -1.654000000    -0.158000000    -5.694000000
H    -3.018000000    -0.650000000    -5.260000000
O     2.227000000    -1.096000000    -5.346000000
H     2.093000000    -0.736000000    -6.223000000
H     1.764000000    -1.933000000    -5.357000000
O     1.912000000     3.854000000    -0.263000000
H     1.348000000     4.476000000     0.198000000
H     1.320000000     3.157000000    -0.545000000
O    -5.897000000    -1.543000000     1.316000000
H    -6.171000000    -1.593000000     0.400000000
H    -5.114000000    -0.993000000     1.303000000
O     4.103000000    -0.244000000    -3.816000000
H     3.974000000    -0.698000000    -2.983000000
H     3.446000000    -0.622000000    -4.400000000
O     1.902000000    -4.156000000    -2.038000000
H     1.076000000    -3.844000000    -1.669000000
H     1.747000000    -5.081000000    -2.226000000
O     2.615000000     4.809000000     5.161000000
H     2.443000000     5.727000000     4.953000000
H     2.679000000     4.378000000     4.309000000
O    -6.051000000    -1.546000000    -3.054000000
H    -6.479000000    -1.455000000    -3.905000000
H    -5.132000000    -1.338000000    -3.223000000
O     3.302000000    -0.163000000     5.297000000
H     4.127000000    -0.357000000     5.741000000
H     2.713000000     0.116000000     5.997000000
O    -0.181000000    -2.898000000     1.572000000
H     0.067000000    -3.074000000     2.479000000
H    -0.086000000    -1.950000000     1.478000000
O     4.888000000    -1.238000000     2.425000000
H     5.068000000    -0.419000000     1.964000000
H     5.538000000    -1.266000000     3.127000000
O    -0.543000000     4.568000000     1.125000000
H    -1.360000000     4.873000000     1.520000000
H    -0.819000000     3.925000000     0.472000000
O    -0.945000000     2.417000000     5.533000000
H    -0.766000000     3.300000000     5.210000000
H    -1.862000000     2.443000000     5.806000000
O     3.789000000    -4.042000000    -5.042000000
H     3.506000000    -3.513000000    -4.296000000
H     4.167000000    -4.828000000    -4.648000000
O    -5.425000000    -3.868000000     2.696000000
H    -6.220000000    -4.376000000     2.538000000
H    -5.521000000    -3.093000000     2.143000000
O    -2.008000000    -1.050000000     3.712000000
H    -1.103000000    -1.248000000     3.472000000
H    -2.457000000    -0.931000000     2.875000000
O     4.476000000     3.926000000     0.143000000
H     3.549000000     3.949000000    -0.094000000
H     4.880000000     4.597000000    -0.408000000
O     2.077000000    -4.811000000     1.326000000
H     1.357000000    -4.183000000     1.272000000
H     2.624000000    -4.488000000     2.042000000
O     4.625000000     3.001000000    -2.720000000
H     4.004000000     2.409000000    -2.296000000
H     4.346000000     3.026000000    -3.635000000
O    -8.391000000    -1.757000000    -1.280000000
H    -7.592000000    -1.565000000    -1.773000000
H    -8.900000000    -0.948000000    -1.326000000
O    -4.315000000     2.068000000     2.826000000
H    -5.166000000     1.851000000     3.207000000
H    -3.996000000     1.239000000     2.467000000
O     5.598000000     1.162000000     0.811000000
H     4.940000000     1.856000000     0.866000000
H     6.348000000     1.577000000     0.385000000
O     4.710000000    -4.784000000     0.370000000
H     3.825000000    -4.530000000     0.631000000
H     4.945000000    -5.488000000     0.973000000
O    -5.132000000     4.523000000     0.597000000
H    -5.847000000     4.795000000     1.173000000
H    -5.318000000     3.605000000     0.401000000
