161
-3041.46778
C    -0.519000000     1.131000000     0.865000000
H    -1.003000000     1.798000000     1.574000000
C     0.390000000     0.136000000     1.278000000
H     0.617000000     0.099000000     2.341000000
C     0.842000000    -0.794000000     0.395000000
C     1.936000000    -1.732000000     0.814000000
H     1.948000000    -2.528000000     0.066000000
H     2.904000000    -1.243000000     0.690000000
H     1.743000000    -2.032000000     1.846000000
C     0.371000000    -0.855000000    -0.894000000
H     0.680000000    -1.652000000    -1.566000000
C    -0.600000000     0.012000000    -1.371000000
H    -1.040000000    -0.160000000    -2.350000000
C    -1.090000000     0.991000000    -0.484000000
C    -2.156000000     1.981000000    -0.945000000
O    -2.639000000     1.851000000    -2.030000000
O    -2.389000000     2.989000000    -0.231000000
O    -4.933000000     6.844000000    -0.949000000
H    -5.304000000     6.031000000    -0.606000000
H    -4.195000000     7.034000000    -0.369000000
O    -4.360000000    -0.605000000     1.409000000
H    -4.191000000    -1.415000000     1.891000000
H    -3.685000000     0.001000000     1.714000000
O    -6.382000000     4.237000000    -3.082000000
H    -5.871000000     3.791000000    -3.757000000
H    -5.954000000     3.996000000    -2.260000000
O    -4.652000000     0.117000000    -1.912000000
H    -4.309000000    -0.620000000    -2.417000000
H    -3.900000000     0.698000000    -1.797000000
O     0.321000000    -6.015000000    -4.678000000
H    -0.252000000    -6.691000000    -4.316000000
H     0.048000000    -5.209000000    -4.240000000
O     4.419000000     0.227000000     3.048000000
H     5.303000000     0.589000000     2.995000000
H     3.935000000     0.673000000     2.354000000
O     1.091000000    -1.781000000    -4.782000000
H     1.091000000    -2.705000000    -5.031000000
H     1.820000000    -1.699000000    -4.167000000
O    -1.675000000     5.366000000    -1.311000000
H    -1.751000000     6.137000000    -0.748000000
H    -2.269000000     4.725000000    -0.920000000
O     2.622000000    -4.502000000    -2.942000000
H     2.910000000    -5.411000000    -3.018000000
H     1.793000000    -4.552000000    -2.466000000
O     0.692000000    -5.166000000     2.764000000
H     1.541000000    -5.070000000     2.333000000
H     0.854000000    -5.782000000     3.479000000
O     2.147000000    -0.051000000     6.085000000
H     2.034000000     0.813000000     5.687000000
H     3.082000000    -0.103000000     6.282000000
O    -1.684000000     2.115000000     4.977000000
H    -0.928000000     2.392000000     4.459000000
H    -2.348000000     1.883000000     4.328000000
O    -1.531000000    -0.841000000    -5.130000000
H    -1.873000000    -1.586000000    -5.624000000
H    -0.581000000    -0.957000000    -5.149000000
O     1.065000000     5.079000000    -2.085000000
H     0.176000000     5.410000000    -1.956000000
H     1.028000000     4.610000000    -2.918000000
O    -3.594000000    -2.024000000    -3.056000000
H    -3.744000000    -2.862000000    -2.618000000
H    -3.719000000    -2.214000000    -3.986000000
O     6.427000000    -5.003000000    -0.059000000
H     7.319000000    -5.067000000    -0.399000000
H     6.084000000    -4.193000000    -0.437000000
O     1.865000000     2.584000000    -0.456000000
H     1.410000000     3.064000000    -1.149000000
H     1.425000000     1.734000000    -0.425000000
O     6.120000000    -1.012000000    -1.778000000
H     5.879000000    -1.541000000    -1.018000000
H     6.770000000    -0.393000000    -1.443000000
O     2.053000000    -5.426000000    -0.031000000
H     2.587000000    -4.790000000     0.445000000
H     2.310000000    -6.274000000     0.331000000
O    -3.859000000    -0.441000000     5.319000000
H    -3.668000000     0.437000000     4.988000000
H    -4.815000000    -0.483000000     5.345000000
O    -3.408000000    -2.634000000     3.556000000
H    -3.572000000    -1.889000000     4.135000000
H    -2.454000000    -2.696000000     3.511000000
O    -5.303000000     2.796000000    -5.882000000
H    -4.643000000     3.479000000    -6.005000000
H    -4.800000000     2.019000000    -5.637000000
O    -1.555000000    -3.278000000     0.215000000
H    -2.085000000    -2.585000000    -0.179000000
H    -1.260000000    -2.909000000     1.047000000
O     0.489000000     3.523000000     3.439000000
H     0.378000000     3.719000000     2.509000000
H     1.434000000     3.420000000     3.551000000
O     0.048000000    -4.550000000    -1.563000000
H    -0.375000000    -3.932000000    -0.967000000
H     0.675000000    -5.021000000    -1.014000000
O    -5.325000000     4.128000000    -0.611000000
H    -5.821000000     4.044000000     0.203000000
H    -4.594000000     3.519000000    -0.509000000
O    -3.515000000     1.078000000    -4.794000000
H    -2.886000000     0.359000000    -4.844000000
H    -3.225000000     1.600000000    -4.046000000
O    -7.278000000     1.050000000    -2.296000000
H    -6.366000000     0.775000000    -2.205000000
H    -7.683000000     0.364000000    -2.826000000
O    -2.464000000     3.823000000     2.176000000
H    -2.167000000     3.339000000     1.405000000
H    -2.617000000     4.712000000     1.856000000
O    -0.742000000    -2.747000000     3.094000000
H    -0.385000000    -2.487000000     3.943000000
H    -0.319000000    -3.583000000     2.901000000
O    -1.738000000     3.842000000    -3.429000000
H    -2.253000000     3.169000000    -2.984000000
H    -1.586000000     4.510000000    -2.760000000
O    -0.256000000     1.775000000    -5.345000000
H    -0.843000000     2.263000000    -4.768000000
H    -0.808000000     1.090000000    -5.724000000
O    -3.221000000     4.430000000    -5.869000000
H    -3.194000000     5.378000000    -5.740000000
H    -2.690000000     4.076000000    -5.155000000
O    -0.388000000     6.426000000     2.445000000
H    -0.947000000     6.150000000     3.171000000
H    -0.384000000     5.678000000     1.848000000
O    -5.229000000    -2.436000000    -0.397000000
H    -5.176000000    -1.866000000    -1.164000000
H    -5.196000000    -1.837000000     0.349000000
O     0.056000000     4.719000000     5.879000000
H     0.695000000     4.194000000     6.361000000
H    -0.010000000     4.292000000     5.025000000
O     2.165000000     3.203000000    -4.091000000
H     1.565000000     2.462000000    -4.012000000
H     2.640000000     3.041000000    -4.907000000
O    -0.950000000    -3.624000000    -3.891000000
H    -1.502000000    -2.852000000    -3.772000000
H    -0.499000000    -3.729000000    -3.053000000
O     0.121000000    -1.830000000     5.495000000
H     0.148000000    -2.525000000     6.152000000
H     0.746000000    -1.177000000     5.811000000
O     3.322000000    -1.891000000    -3.574000000
H     3.164000000    -2.809000000    -3.356000000
H     4.109000000    -1.659000000    -3.080000000
O     0.060000000     4.221000000     0.914000000
H    -0.659000000     4.127000000     0.289000000
H     0.803000000     3.791000000     0.491000000
O     3.477000000    -5.768000000     2.502000000
H     3.582000000    -6.591000000     2.979000000
H     4.275000000    -5.277000000     2.693000000
O     5.421000000    -2.384000000     0.387000000
H     6.136000000    -2.581000000     0.992000000
H     4.626000000    -2.557000000     0.891000000
O    -2.947000000     7.008000000     1.104000000
H    -2.181000000     7.093000000     1.672000000
H    -3.664000000     7.392000000     1.610000000
O     3.025000000     3.174000000     4.184000000
H     3.219000000     3.811000000     4.872000000
H     3.869000000     2.768000000     3.989000000
O    -3.669000000     1.671000000     3.311000000
H    -4.594000000     1.614000000     3.072000000
H    -3.335000000     2.407000000     2.797000000
O     4.127000000    -3.141000000     3.322000000
H     3.625000000    -3.866000000     3.692000000
H     3.731000000    -2.357000000     3.703000000
O    -2.572000000     5.684000000     4.163000000
H    -2.385000000     5.324000000     5.029000000
H    -2.798000000     4.922000000     3.630000000
