161
-3038.81962
C     0.476000000    -1.161000000     0.810000000
H     0.871000000    -1.951000000     1.444000000
C     1.281000000    -0.147000000     0.359000000
H     2.319000000    -0.027000000     0.660000000
C     0.796000000     0.857000000    -0.447000000
C     1.610000000     2.029000000    -0.885000000
H     0.939000000     2.851000000    -1.146000000
H     2.227000000     2.298000000    -0.025000000
H     2.219000000     1.659000000    -1.712000000
C    -0.567000000     0.855000000    -0.813000000
H    -0.911000000     1.530000000    -1.591000000
C    -1.459000000    -0.121000000    -0.333000000
H    -2.498000000    -0.184000000    -0.644000000
C    -0.924000000    -1.124000000     0.524000000
C    -1.868000000    -2.166000000     1.132000000
O    -3.072000000    -2.110000000     0.885000000
O    -1.431000000    -3.093000000     1.781000000
O    -5.333000000     0.470000000     0.097000000
H    -5.376000000    -0.470000000     0.270000000
H    -4.841000000     0.828000000     0.835000000
O     1.000000000    -0.471000000     5.208000000
H     1.427000000    -1.326000000     5.159000000
H     0.282000000    -0.597000000     5.829000000
O    -6.099000000     0.603000000     3.593000000
H    -5.765000000     1.492000000     3.476000000
H    -6.196000000     0.265000000     2.703000000
O    -3.003000000     3.181000000     2.039000000
H    -2.462000000     3.566000000     1.350000000
H    -3.010000000     2.244000000     1.843000000
O     6.217000000     1.653000000     3.491000000
H     5.888000000     1.603000000     2.593000000
H     5.608000000     1.119000000     4.000000000
O     3.933000000    -0.521000000     3.730000000
H     3.399000000    -1.239000000     4.070000000
H     4.772000000    -0.929000000     3.513000000
O    -0.399000000     6.330000000    -2.027000000
H     0.534000000     6.457000000    -1.852000000
H    -0.429000000     5.977000000    -2.916000000
O    -2.918000000     3.837000000    -4.596000000
H    -2.969000000     4.416000000    -5.357000000
H    -1.980000000     3.751000000    -4.424000000
O     2.402000000     6.610000000    -2.095000000
H     2.565000000     5.853000000    -2.657000000
H     2.601000000     6.300000000    -1.212000000
O     6.324000000     0.420000000     0.701000000
H     7.141000000     0.049000000     0.369000000
H     5.710000000    -0.315000000     0.703000000
O     5.346000000     2.929000000     0.151000000
H     5.681000000     2.041000000     0.277000000
H     5.171000000     2.988000000    -0.788000000
O    -3.973000000     0.877000000    -5.400000000
H    -3.979000000     0.225000000    -4.699000000
H    -3.663000000     1.679000000    -4.978000000
O     4.008000000     3.942000000     2.109000000
H     3.501000000     3.213000000     2.465000000
H     4.447000000     3.576000000     1.341000000
O    -4.249000000    -4.201000000     2.845000000
H    -4.984000000    -3.588000000     2.823000000
H    -3.519000000    -3.713000000     2.464000000
O    -0.172000000    -4.034000000     3.853000000
H    -0.285000000    -4.985000000     3.837000000
H    -0.552000000    -3.734000000     3.027000000
O    -0.811000000     4.583000000    -0.236000000
H    -0.647000000     5.088000000    -1.033000000
H    -0.319000000     5.043000000     0.444000000
O     2.077000000    -2.940000000     4.829000000
H     2.511000000    -3.691000000     5.233000000
H     1.252000000    -3.292000000     4.495000000
O     5.055000000     4.279000000    -2.484000000
H     5.604000000     3.712000000    -3.025000000
H     4.209000000     4.291000000    -2.931000000
O     3.156000000    -3.635000000     2.129000000
H     2.914000000    -3.254000000     2.973000000
H     2.650000000    -4.446000000     2.077000000
O    -4.659000000     1.510000000    -2.364000000
H    -5.062000000     1.281000000    -1.526000000
H    -4.094000000     2.255000000    -2.162000000
O    -3.359000000     0.651000000     2.116000000
H    -3.126000000     0.325000000     2.985000000
H    -3.339000000    -0.124000000     1.555000000
O     5.880000000    -2.156000000     1.030000000
H     6.674000000    -2.503000000     0.623000000
H     5.948000000    -2.418000000     1.949000000
O     0.824000000     5.629000000     1.957000000
H     0.956000000     5.186000000     2.795000000
H     0.099000000     6.232000000     2.116000000
O    -3.601000000    -7.314000000     0.925000000
H    -4.227000000    -6.795000000     0.420000000
H    -3.026000000    -6.667000000     1.332000000
O    -3.140000000    -1.252000000    -3.443000000
H    -2.201000000    -1.085000000    -3.355000000
H    -3.346000000    -1.848000000    -2.723000000
O     3.698000000    -1.111000000    -3.963000000
H     3.024000000    -1.554000000    -3.448000000
H     4.505000000    -1.240000000    -3.465000000
O     3.823000000    -3.211000000    -0.559000000
H     3.656000000    -3.357000000     0.372000000
H     4.770000000    -3.085000000    -0.615000000
O    -0.502000000     3.240000000    -3.784000000
H     0.123000000     2.838000000    -3.180000000
H    -0.186000000     2.994000000    -4.653000000
O     0.128000000    -0.468000000    -3.356000000
H    -0.205000000    -0.027000000    -2.575000000
H     0.911000000    -0.930000000    -3.056000000
O    -0.171000000    -4.126000000    -2.602000000
H    -0.920000000    -4.654000000    -2.880000000
H     0.366000000    -4.039000000    -3.390000000
O     0.135000000    -0.379000000    -6.114000000
H     1.015000000    -0.165000000    -6.423000000
H     0.170000000    -0.229000000    -5.169000000
O     2.928000000     1.743000000     3.068000000
H     2.256000000     1.764000000     3.749000000
H     3.320000000     0.873000000     3.144000000
O     2.001000000    -2.226000000    -2.139000000
H     1.361000000    -2.915000000    -1.960000000
H     2.572000000    -2.223000000    -1.371000000
O     6.686000000     1.864000000    -2.704000000
H     6.256000000     1.065000000    -2.399000000
H     6.521000000     1.880000000    -3.647000000
O     2.998000000     5.813000000     0.717000000
H     2.160000000     5.918000000     1.166000000
H     3.383000000     5.029000000     1.108000000
O    -5.670000000    -1.998000000     1.690000000
H    -6.182000000    -2.592000000     1.140000000
H    -4.770000000    -2.103000000     1.382000000
O     2.814000000     3.794000000    -3.628000000
H     2.753000000     2.873000000    -3.881000000
H     2.761000000     4.274000000    -4.454000000
O    -1.407000000    -6.587000000     3.949000000
H    -1.068000000    -7.463000000     4.135000000
H    -1.376000000    -6.516000000     2.995000000
O    -1.432000000    -5.726000000     1.321000000
H    -1.505000000    -4.799000000     1.094000000
H    -0.756000000    -6.063000000     0.734000000
O    -5.374000000    -5.622000000    -0.522000000
H    -5.986000000    -5.993000000     0.113000000
H    -5.932000000    -5.208000000    -1.180000000
O    -1.829000000    -0.765000000     3.806000000
H    -2.062000000    -1.454000000     4.427000000
H    -1.121000000    -1.142000000     3.284000000
O    -3.299000000     3.950000000    -1.825000000
H    -2.424000000     4.101000000    -1.468000000
H    -3.197000000     4.072000000    -2.769000000
O    -3.545000000    -3.465000000    -1.597000000
H    -4.221000000    -4.142000000    -1.575000000
H    -3.471000000    -3.170000000    -0.689000000
O     2.924000000     1.414000000    -4.765000000
H     3.244000000     0.583000000    -4.414000000
H     2.605000000     1.198000000    -5.641000000
O    -6.345000000    -1.695000000    -3.599000000
H    -5.431000000    -1.559000000    -3.348000000
H    -6.402000000    -1.354000000    -4.491000000
O    -1.772000000    -5.019000000     6.149000000
H    -1.449000000    -4.410000000     5.486000000
H    -1.684000000    -5.882000000     5.744000000
O    -2.829000000    -2.525000000     5.690000000
H    -2.651000000    -2.182000000     6.565000000
H    -3.032000000    -3.450000000     5.832000000
O     0.652000000    -5.318000000    -0.407000000
H     0.239000000    -4.913000000    -1.171000000
H     1.319000000    -4.688000000    -0.134000000
