161
-3061.70383
C    -0.875000000     0.590000000     1.031000000
H    -1.503000000     1.092000000     1.763000000
C     0.514000000     0.769000000     0.946000000
H     1.006000000     1.445000000     1.641000000
C     1.216000000     0.196000000    -0.093000000
C     2.707000000     0.326000000    -0.081000000
H     3.156000000    -0.472000000     0.515000000
H     3.079000000     0.385000000    -1.105000000
H     2.961000000     1.268000000     0.409000000
C     0.556000000    -0.608000000    -0.998000000
H     1.109000000    -1.116000000    -1.784000000
C    -0.805000000    -0.895000000    -0.912000000
H    -1.277000000    -1.444000000    -1.722000000
C    -1.563000000    -0.177000000     0.060000000
C    -3.093000000    -0.379000000     0.095000000
O    -3.580000000    -0.649000000    -0.935000000
O    -3.603000000    -0.327000000     1.165000000
O    -2.497000000    -3.591000000     1.124000000
H    -3.100000000    -3.637000000     0.381000000
H    -1.629000000    -3.698000000     0.735000000
O    -6.201000000    -0.663000000    -1.627000000
H    -6.480000000     0.206000000    -1.337000000
H    -5.277000000    -0.711000000    -1.383000000
O    -6.326000000    -0.908000000     1.791000000
H    -6.619000000    -0.370000000     1.055000000
H    -5.377000000    -0.780000000     1.818000000
O    -6.961000000     2.015000000    -1.684000000
H    -7.836000000     1.890000000    -1.315000000
H    -6.641000000     2.819000000    -1.274000000
O     3.557000000     2.573000000    -3.126000000
H     2.733000000     3.028000000    -3.300000000
H     3.386000000     1.665000000    -3.375000000
O    -3.848000000     2.695000000    -1.356000000
H    -3.546000000     3.457000000    -0.861000000
H    -3.874000000     2.994000000    -2.265000000
O    -5.801000000    -1.917000000     5.026000000
H    -5.102000000    -1.823000000     4.379000000
H    -5.807000000    -2.850000000     5.239000000
O     6.697000000    -3.370000000     1.233000000
H     7.290000000    -4.069000000     1.509000000
H     6.592000000    -2.824000000     2.012000000
O    -4.165000000     3.919000000     4.280000000
H    -4.105000000     3.684000000     3.354000000
H    -4.204000000     4.876000000     4.282000000
O     2.652000000    -0.983000000     3.103000000
H     2.475000000    -0.756000000     4.015000000
H     3.602000000    -0.907000000     3.017000000
O     1.115000000    -5.006000000     2.383000000
H     1.715000000    -4.338000000     2.053000000
H     1.593000000    -5.829000000     2.282000000
O     5.838000000     1.535000000     3.475000000
H     5.239000000     2.279000000     3.410000000
H     6.566000000     1.763000000     2.897000000
O    -0.713000000    -0.007000000    -4.350000000
H    -1.584000000    -0.326000000    -4.112000000
H    -0.217000000    -0.798000000    -4.561000000
O    -3.273000000    -2.077000000     3.072000000
H    -3.288000000    -2.702000000     2.348000000
H    -3.342000000    -1.220000000     2.650000000
O     4.710000000     6.312000000    -0.742000000
H     5.135000000     6.676000000     0.034000000
H     3.996000000     5.776000000    -0.395000000
O    -5.553000000     1.517000000    -4.008000000
H    -6.088000000     1.695000000    -3.235000000
H    -6.142000000     1.672000000    -4.747000000
O    -4.174000000     2.249000000     1.876000000
H    -3.930000000     1.325000000     1.928000000
H    -4.406000000     2.384000000     0.958000000
O    -3.506000000     1.794000000     6.491000000
H    -3.967000000     1.896000000     5.659000000
H    -2.599000000     1.613000000     6.242000000
O    -0.540000000    -3.245000000     3.728000000
H    -1.340000000    -3.235000000     3.202000000
H     0.134000000    -3.572000000     3.131000000
O    -6.432000000     1.695000000     3.593000000
H    -5.525000000     1.919000000     3.385000000
H    -6.935000000     2.015000000     2.844000000
O    -3.961000000    -3.178000000    -1.409000000
H    -3.733000000    -3.237000000    -2.336000000
H    -3.742000000    -2.279000000    -1.165000000
O    -2.456000000    -2.397000000     5.718000000
H    -3.105000000    -2.269000000     5.026000000
H    -1.750000000    -2.887000000     5.297000000
O    -1.618000000     0.040000000     5.257000000
H    -1.920000000    -0.783000000     5.641000000
H    -1.178000000    -0.221000000     4.448000000
O     0.040000000     2.092000000    -5.755000000
H    -0.108000000     1.578000000    -4.961000000
H    -0.331000000     1.560000000    -6.458000000
O     0.046000000     3.547000000    -1.019000000
H     0.453000000     3.467000000    -1.882000000
H     0.188000000     2.695000000    -0.607000000
O     7.185000000     1.306000000    -1.247000000
H     6.454000000     1.919000000    -1.170000000
H     6.770000000     0.445000000    -1.308000000
O     2.562000000    -3.737000000    -1.038000000
H     1.645000000    -3.911000000    -1.250000000
H     2.535000000    -3.335000000    -0.170000000
O    -5.500000000    -5.218000000    -2.596000000
H    -6.435000000    -5.232000000    -2.804000000
H    -5.419000000    -4.561000000    -1.904000000
O    -8.085000000    -1.991000000    -3.197000000
H    -7.534000000    -1.538000000    -3.835000000
H    -7.856000000    -1.592000000    -2.357000000
O     5.678000000     0.276000000    -4.814000000
H     5.913000000     1.190000000    -4.972000000
H     4.880000000     0.322000000    -4.288000000
O     5.209000000    -1.212000000    -0.551000000
H     5.743000000    -1.748000000     0.034000000
H     4.589000000    -1.829000000    -0.941000000
O     5.230000000     3.042000000    -1.019000000
H     5.144000000     3.984000000    -0.870000000
H     4.565000000     2.843000000    -1.678000000
O    -1.808000000    -3.463000000    -4.020000000
H    -2.735000000    -3.235000000    -4.095000000
H    -1.421000000    -3.168000000    -4.845000000
O     1.781000000    -4.378000000    -5.062000000
H     1.344000000    -4.654000000    -4.256000000
H     2.581000000    -4.903000000    -5.093000000
O     1.609000000    -2.572000000     1.178000000
H     0.901000000    -2.033000000     0.826000000
H     2.086000000    -1.987000000     1.765000000
O     0.020000000    -4.670000000    -2.706000000
H    -0.762000000    -4.323000000    -3.136000000
H    -0.235000000    -4.774000000    -1.790000000
O     4.453000000     3.411000000     1.614000000
H     4.839000000     2.950000000     0.869000000
H     3.869000000     4.058000000     1.219000000
O    -2.603000000     4.794000000     0.177000000
H    -1.815000000     4.478000000    -0.265000000
H    -2.281000000     5.184000000     0.990000000
O    -4.554000000    -2.871000000    -4.295000000
H    -5.311000000    -3.454000000    -4.229000000
H    -4.916000000    -2.044000000    -4.613000000
O     1.164000000     3.478000000    -3.627000000
H     0.639000000     3.015000000    -4.279000000
H     1.222000000     4.374000000    -3.959000000
O     2.345000000     5.190000000     0.178000000
H     1.568000000     4.790000000    -0.213000000
H     2.012000000     5.665000000     0.939000000
O    -3.426000000    -0.088000000    -3.475000000
H    -4.171000000     0.510000000    -3.532000000
H    -3.203000000    -0.105000000    -2.545000000
O    -6.824000000    -3.195000000    -0.509000000
H    -6.631000000    -2.347000000    -0.909000000
H    -7.111000000    -2.981000000     0.379000000
O     0.899000000    -1.881000000    -5.358000000
H     0.719000000    -2.075000000    -6.278000000
H     1.455000000    -2.603000000    -5.065000000
O     2.971000000    -0.091000000    -3.824000000
H     2.838000000    -0.432000000    -2.940000000
H     2.430000000    -0.651000000    -4.381000000
O    -0.408000000    -4.832000000     0.123000000
H    -0.915000000    -5.594000000     0.403000000
H     0.026000000    -4.527000000     0.920000000
O     3.825000000    -4.820000000    -3.183000000
H     3.484000000    -4.381000000    -2.404000000
H     4.050000000    -4.107000000    -3.781000000
O    -5.460000000    -5.399000000     0.744000000
H    -4.558000000    -5.527000000     0.450000000
H    -5.749000000    -4.606000000     0.292000000
