161
-3060.42638
C    -1.417000000     0.092000000     0.401000000
H    -2.438000000     0.206000000     0.755000000
C    -0.355000000     0.521000000     1.189000000
H    -0.487000000     0.915000000     2.193000000
C     0.958000000     0.350000000     0.709000000
C     2.160000000     0.684000000     1.508000000
H     2.076000000     0.647000000     2.596000000
H     2.971000000     0.025000000     1.193000000
H     2.472000000     1.718000000     1.347000000
C     1.192000000    -0.161000000    -0.580000000
H     2.170000000    -0.382000000    -1.002000000
C     0.079000000    -0.619000000    -1.349000000
H     0.128000000    -0.987000000    -2.370000000
C    -1.217000000    -0.456000000    -0.836000000
C    -2.440000000    -0.766000000    -1.717000000
O    -2.346000000    -0.930000000    -2.888000000
O    -3.501000000    -0.861000000    -1.151000000
O    -1.835000000    -4.517000000    -1.151000000
H    -1.722000000    -4.067000000    -1.989000000
H    -1.456000000    -5.384000000    -1.292000000
O    -4.053000000    -1.409000000    -4.914000000
H    -4.841000000    -0.865000000    -4.937000000
H    -3.674000000    -1.245000000    -4.050000000
O    -4.430000000    -3.341000000    -1.578000000
H    -3.691000000    -3.912000000    -1.369000000
H    -4.095000000    -2.455000000    -1.440000000
O    -5.393000000     0.732000000    -2.568000000
H    -4.896000000     0.266000000    -1.896000000
H    -6.235000000     0.922000000    -2.155000000
O     3.277000000     0.517000000    -3.510000000
H     2.620000000     1.186000000    -3.699000000
H     2.934000000    -0.278000000    -3.918000000
O    -3.750000000     3.155000000     0.554000000
H    -2.998000000     3.348000000    -0.005000000
H    -4.491000000     3.566000000     0.110000000
O    -5.120000000    -3.973000000     1.797000000
H    -4.314000000    -3.606000000     1.436000000
H    -4.964000000    -4.917000000     1.821000000
O     3.889000000     0.291000000     7.562000000
H     4.260000000     0.859000000     8.238000000
H     3.089000000     0.738000000     7.287000000
O    -0.657000000     4.111000000     4.002000000
H    -0.850000000     4.270000000     4.926000000
H    -1.432000000     3.660000000     3.670000000
O    -3.232000000     3.726000000     3.284000000
H    -3.646000000     3.234000000     2.575000000
H    -3.204000000     4.628000000     2.965000000
O     4.295000000    -2.890000000     2.958000000
H     3.687000000    -3.577000000     3.231000000
H     5.150000000    -3.192000000     3.264000000
O    -2.724000000     2.476000000    -5.543000000
H    -3.627000000     2.364000000    -5.838000000
H    -2.804000000     2.841000000    -4.661000000
O     2.788000000    -5.179000000    -0.640000000
H     2.983000000    -4.247000000    -0.536000000
H     3.593000000    -5.623000000    -0.375000000
O     5.261000000    -0.352000000     3.075000000
H     5.172000000     0.039000000     2.206000000
H     4.992000000    -1.263000000     2.958000000
O     0.988000000    -0.108000000    -6.775000000
H     0.270000000    -0.058000000    -6.144000000
H     1.729000000    -0.441000000    -6.268000000
O     2.356000000     5.450000000     2.619000000
H     1.562000000     5.024000000     2.297000000
H     3.071000000     4.977000000     2.192000000
O    -5.596000000    -1.398000000     2.751000000
H    -5.356000000    -2.274000000     2.450000000
H    -5.324000000    -0.817000000     2.041000000
O     5.721000000    -0.165000000    -5.090000000
H     5.097000000     0.003000000    -4.383000000
H     5.175000000    -0.301000000    -5.864000000
O    -2.657000000    -2.930000000     0.884000000
H    -2.088000000    -3.588000000     0.485000000
H    -2.670000000    -2.211000000     0.252000000
O     1.971000000     3.667000000     4.795000000
H     2.342000000     4.378000000     4.272000000
H     1.025000000     3.755000000     4.682000000
O     4.727000000     3.983000000     1.355000000
H     5.658000000     4.206000000     1.379000000
H     4.488000000     4.055000000     0.431000000
O     1.181000000    -0.960000000     4.597000000
H     1.847000000    -1.646000000     4.559000000
H     0.371000000    -1.399000000     4.337000000
O     1.278000000     0.766000000     6.873000000
H     1.486000000     1.503000000     6.298000000
H     0.794000000     0.157000000     6.315000000
O     5.845000000    -0.619000000     5.681000000
H     5.111000000    -0.124000000     6.043000000
H     5.654000000    -0.682000000     4.745000000
O    -4.888000000     0.439000000     0.756000000
H    -4.275000000     0.011000000     0.158000000
H    -4.664000000     1.369000000     0.702000000
O     6.064000000     4.934000000     4.404000000
H     6.895000000     4.462000000     4.457000000
H     5.476000000     4.335000000     3.944000000
O    -3.467000000    -0.918000000     5.064000000
H    -3.947000000    -0.695000000     4.267000000
H    -2.553000000    -0.979000000     4.785000000
O    -1.221000000    -3.470000000    -3.720000000
H    -1.726000000    -3.529000000    -4.530000000
H    -1.368000000    -2.576000000    -3.411000000
O    -2.492000000    -1.385000000    -7.106000000
H    -1.949000000    -0.597000000    -7.085000000
H    -2.922000000    -1.403000000    -6.251000000
O    -1.234000000    -1.976000000     3.658000000
H    -0.605000000    -2.124000000     2.952000000
H    -1.725000000    -2.796000000     3.717000000
O     0.859000000     2.515000000    -1.644000000
H     1.297000000     2.562000000    -2.494000000
H     0.853000000     1.582000000    -1.429000000
O     1.858000000    -3.771000000    -2.876000000
H     1.939000000    -4.155000000    -2.003000000
H     1.097000000    -4.207000000    -3.259000000
O    -4.150000000     3.272000000    -3.063000000
H    -4.951000000     3.787000000    -3.154000000
H    -4.456000000     2.377000000    -2.917000000
O     0.472000000     5.146000000     0.721000000
H    -0.165000000     4.750000000     0.127000000
H    -0.058000000     5.641000000     1.345000000
O     6.592000000    -1.412000000    -0.346000000
H     6.078000000    -1.646000000    -1.120000000
H     6.022000000    -0.824000000     0.151000000
O     6.087000000     1.158000000    -2.287000000
H     5.954000000     0.872000000    -1.383000000
H     5.337000000     0.801000000    -2.763000000
O     3.457000000     7.014000000     0.218000000
H     2.912000000     6.319000000     0.587000000
H     4.350000000     6.674000000     0.275000000
O     3.314000000    -2.586000000     0.037000000
H     2.629000000    -1.935000000     0.190000000
H     3.784000000    -2.639000000     0.869000000
O     5.497000000     1.068000000     0.653000000
H     6.334000000     1.524000000     0.564000000
H     4.926000000     1.698000000     1.092000000
O    -1.528000000     4.100000000    -0.961000000
H    -0.957000000     3.387000000    -1.244000000
H    -1.766000000     4.553000000    -1.770000000
O    -2.367000000    -4.122000000    -6.831000000
H    -1.481000000    -4.321000000    -7.132000000
H    -2.475000000    -3.187000000    -7.006000000
O     1.566000000     2.502000000    -4.277000000
H     0.894000000     2.469000000    -4.957000000
H     2.099000000     3.264000000    -4.503000000
O    -7.735000000     0.289000000     0.643000000
H    -8.014000000     0.476000000    -0.253000000
H    -6.783000000     0.205000000     0.585000000
O     2.947000000     4.103000000    -0.892000000
H     2.866000000     3.154000000    -0.806000000
H     2.044000000     4.420000000    -0.915000000
O    -0.977000000     0.149000000    -4.824000000
H    -1.644000000     0.691000000    -5.245000000
H    -1.427000000    -0.247000000    -4.077000000
O    -5.334000000    -4.295000000    -4.281000000
H    -5.120000000    -3.700000000    -5.000000000
H    -4.961000000    -3.878000000    -3.505000000
O     2.544000000    -1.821000000    -4.628000000
H     2.374000000    -2.300000000    -3.817000000
H     3.152000000    -2.379000000    -5.112000000
O     5.098000000    -2.155000000    -2.508000000
H     4.347000000    -2.452000000    -1.994000000
H     5.254000000    -2.863000000    -3.134000000
