161
-3056.75518
C    -0.717000000    -0.958000000     0.898000000
H    -1.136000000    -1.574000000     1.690000000
C     0.498000000    -0.291000000     1.202000000
H     0.894000000    -0.314000000     2.214000000
C     1.137000000     0.451000000     0.188000000
C     2.225000000     1.448000000     0.581000000
H     2.307000000     2.270000000    -0.132000000
H     2.055000000     1.871000000     1.573000000
H     3.185000000     0.928000000     0.611000000
C     0.509000000     0.673000000    -1.030000000
H     0.996000000     1.365000000    -1.713000000
C    -0.679000000     0.069000000    -1.329000000
H    -1.137000000     0.132000000    -2.312000000
C    -1.265000000    -0.859000000    -0.403000000
C    -2.599000000    -1.611000000    -0.656000000
O    -3.249000000    -1.259000000    -1.576000000
O    -3.016000000    -2.348000000     0.200000000
O    -3.418000000    -1.940000000    -4.134000000
H    -3.996000000    -2.703000000    -4.150000000
H    -3.386000000    -1.683000000    -3.212000000
O    -3.727000000     1.642000000    -2.829000000
H    -3.817000000     2.371000000    -2.215000000
H    -3.481000000     0.897000000    -2.280000000
O    -3.742000000    -2.562000000     4.158000000
H    -3.296000000    -3.047000000     3.464000000
H    -4.542000000    -3.061000000     4.324000000
O     1.723000000    -3.302000000    -0.020000000
H     1.931000000    -2.733000000    -0.761000000
H     2.304000000    -3.006000000     0.681000000
O    -4.976000000    -6.548000000    -1.752000000
H    -4.304000000    -6.943000000    -1.197000000
H    -4.757000000    -5.616000000    -1.766000000
O     6.789000000     3.218000000     2.138000000
H     7.668000000     3.220000000     2.516000000
H     6.592000000     2.292000000     1.994000000
O    -1.175000000    -1.202000000     4.249000000
H    -0.265000000    -1.495000000     4.204000000
H    -1.687000000    -2.010000000     4.253000000
O    -0.035000000     4.599000000    -2.398000000
H    -0.582000000     3.866000000    -2.683000000
H    -0.135000000     4.615000000    -1.446000000
O    -6.538000000     1.902000000     0.194000000
H    -6.299000000     1.058000000    -0.189000000
H    -5.703000000     2.301000000     0.436000000
O     2.107000000    -2.697000000    -3.903000000
H     2.790000000    -3.354000000    -4.043000000
H     1.289000000    -3.163000000    -4.074000000
O     4.507000000     3.137000000     4.337000000
H     5.110000000     2.599000000     3.823000000
H     4.514000000     2.739000000     5.208000000
O    -5.388000000    -2.046000000     1.168000000
H    -4.515000000    -2.262000000     0.841000000
H    -5.761000000    -1.474000000     0.496000000
O     1.258000000    -2.563000000     4.266000000
H     0.666000000    -3.176000000     3.830000000
H     1.796000000    -3.114000000     4.835000000
O     0.842000000     2.928000000     6.246000000
H     0.730000000     3.155000000     5.323000000
H     1.472000000     2.208000000     6.241000000
O     2.701000000     0.924000000     5.876000000
H     3.479000000     1.078000000     6.413000000
H     2.819000000     0.039000000     5.531000000
O    -3.685000000     0.113000000     3.551000000
H    -2.737000000     0.056000000     3.670000000
H    -4.016000000    -0.728000000     3.867000000
O    -4.102000000    -6.307000000     2.014000000
H    -4.900000000    -6.055000000     1.549000000
H    -4.378000000    -7.013000000     2.599000000
O    -2.570000000    -4.153000000     2.272000000
H    -3.261000000    -4.799000000     2.127000000
H    -2.657000000    -3.541000000     1.541000000
O    -7.348000000    -1.055000000     2.755000000
H    -6.485000000    -1.262000000     2.398000000
H    -7.470000000    -1.684000000     3.466000000
O    -1.399000000     2.236000000     1.798000000
H    -1.927000000     2.059000000     1.019000000
H    -0.784000000     1.504000000     1.842000000
O    -3.242000000    -4.579000000    -1.281000000
H    -2.382000000    -4.995000000    -1.225000000
H    -3.120000000    -3.721000000    -0.874000000
O     4.867000000     6.693000000    -0.778000000
H     4.193000000     7.368000000    -0.695000000
H     4.433000000     5.887000000    -0.499000000
O    -0.225000000    -4.857000000    -1.640000000
H     0.264000000    -5.672000000    -1.525000000
H     0.289000000    -4.200000000    -1.171000000
O     3.308000000    -2.833000000     2.504000000
H     2.508000000    -2.561000000     2.953000000
H     3.412000000    -3.756000000     2.737000000
O    -0.819000000     4.842000000     0.330000000
H    -1.659000000     4.387000000     0.386000000
H    -0.419000000     4.714000000     1.190000000
O    -4.620000000    -4.373000000    -4.063000000
H    -4.545000000    -4.314000000    -3.111000000
H    -5.151000000    -5.156000000    -4.213000000
O    -6.405000000    -4.465000000     1.222000000
H    -7.045000000    -4.542000000     0.515000000
H    -6.098000000    -3.560000000     1.169000000
O     4.995000000    -1.129000000     4.302000000
H     4.666000000    -1.484000000     3.477000000
H     5.280000000    -1.897000000     4.797000000
O     2.977000000    -1.691000000    -1.662000000
H     3.427000000    -0.901000000    -1.964000000
H     2.791000000    -2.182000000    -2.462000000
O    -0.638000000    -3.108000000    -3.683000000
H    -1.476000000    -2.795000000    -4.023000000
H    -0.874000000    -3.797000000    -3.062000000
O    -1.293000000     2.331000000    -4.653000000
H    -0.649000000     1.623000000    -4.671000000
H    -2.064000000     1.942000000    -4.241000000
O     5.753000000     4.199000000    -2.556000000
H     6.272000000     4.982000000    -2.373000000
H     5.205000000     4.088000000    -1.779000000
O    -5.832000000    -0.314000000    -1.129000000
H    -6.452000000    -0.880000000    -1.588000000
H    -4.972000000    -0.667000000    -1.355000000
O     6.277000000     0.596000000     2.540000000
H     6.097000000     0.079000000     1.754000000
H     5.929000000     0.069000000     3.259000000
O    -6.058000000     1.246000000    -4.485000000
H    -5.320000000     1.374000000    -3.888000000
H    -5.705000000     0.703000000    -5.190000000
O     2.970000000     2.071000000    -4.470000000
H     2.300000000     1.462000000    -4.781000000
H     3.787000000     1.740000000    -4.843000000
O     0.355000000     3.396000000     3.631000000
H     1.040000000     3.332000000     2.965000000
H    -0.444000000     3.128000000     3.178000000
O     4.316000000     0.712000000    -2.419000000
H     3.864000000     1.449000000    -2.006000000
H     4.084000000     0.779000000    -3.345000000
O     2.004000000     4.265000000    -5.766000000
H     2.773000000     4.835000000    -5.746000000
H     2.250000000     3.511000000    -5.231000000
O     5.899000000    -2.691000000     1.473000000
H     5.055000000    -2.673000000     1.923000000
H     5.780000000    -3.322000000     0.764000000
O    -7.266000000    -1.555000000    -3.090000000
H    -7.888000000    -1.086000000    -3.645000000
H    -7.556000000    -2.467000000    -3.122000000
O     0.761000000     0.098000000    -4.942000000
H     0.774000000    -0.647000000    -4.341000000
H     1.127000000    -0.246000000    -5.757000000
O     4.443000000     4.077000000     0.007000000
H     3.669000000     3.959000000    -0.544000000
H     4.099000000     4.125000000     0.898000000
O     2.843000000     4.156000000     2.557000000
H     3.491000000     3.909000000     3.217000000
H     2.430000000     4.944000000     2.910000000
O     0.243000000    -4.308000000     2.421000000
H    -0.679000000    -4.548000000     2.327000000
H     0.485000000    -3.946000000     1.569000000
O     6.390000000     0.150000000    -0.452000000
H     6.670000000     1.048000000    -0.629000000
H     5.623000000     0.024000000    -1.010000000
O    -2.688000000    -0.718000000    -6.519000000
H    -2.572000000    -1.178000000    -5.688000000
H    -3.511000000    -0.240000000    -6.415000000
O     2.892000000     3.680000000    -2.191000000
H     3.342000000     3.420000000    -2.995000000
H     2.123000000     4.164000000    -2.492000000
