161
-3027.66130
C    -1.135000000     0.586000000     0.845000000
H    -1.856000000     1.056000000     1.509000000
C     0.235000000     0.865000000     0.993000000
H     0.605000000     1.640000000     1.660000000
C     1.185000000     0.227000000     0.184000000
C     2.604000000     0.781000000     0.018000000
H     2.979000000     0.685000000    -1.002000000
H     2.672000000     1.866000000     0.117000000
H     3.279000000     0.267000000     0.706000000
C     0.809000000    -0.691000000    -0.794000000
H     1.482000000    -1.059000000    -1.564000000
C    -0.533000000    -1.080000000    -0.800000000
H    -0.821000000    -1.853000000    -1.506000000
C    -1.473000000    -0.410000000    -0.053000000
C    -2.977000000    -0.833000000    -0.084000000
O    -3.302000000    -1.539000000    -1.002000000
O    -3.750000000    -0.500000000     0.780000000
O     6.634000000    -0.642000000    -1.454000000
H     5.691000000    -0.516000000    -1.352000000
H     7.027000000     0.046000000    -0.917000000
O    -2.643000000    -0.015000000    -3.560000000
H    -3.485000000     0.259000000    -3.925000000
H    -2.867000000    -0.421000000    -2.722000000
O    -6.285000000     1.882000000     4.410000000
H    -5.869000000     1.681000000     3.572000000
H    -5.839000000     2.671000000     4.717000000
O    -2.302000000     2.470000000    -1.721000000
H    -1.648000000     1.951000000    -2.188000000
H    -1.909000000     2.636000000    -0.864000000
O    -0.426000000     1.625000000     6.864000000
H    -0.606000000     2.038000000     6.020000000
H    -0.215000000     0.717000000     6.647000000
O    -2.958000000     4.107000000     4.523000000
H    -3.733000000     4.529000000     4.893000000
H    -2.223000000     4.498000000     4.996000000
O    -2.259000000     5.958000000    -0.183000000
H    -3.046000000     5.414000000    -0.148000000
H    -1.535000000     5.332000000    -0.179000000
O    -5.100000000    -2.819000000     4.462000000
H    -5.613000000    -2.457000000     3.739000000
H    -4.654000000    -3.577000000     4.084000000
O     1.455000000    -2.277000000     1.990000000
H     1.935000000    -1.759000000     2.636000000
H     2.080000000    -2.410000000     1.277000000
O     6.514000000     3.366000000     2.306000000
H     7.400000000     3.319000000     2.665000000
H     6.227000000     4.259000000     2.493000000
O    -3.352000000    -0.458000000     4.108000000
H    -2.923000000    -0.868000000     3.357000000
H    -3.584000000    -1.191000000     4.679000000
O     2.877000000     2.891000000    -2.948000000
H     1.952000000     2.652000000    -2.997000000
H     2.883000000     3.732000000    -2.490000000
O    -1.265000000     1.978000000     4.167000000
H    -1.789000000     1.180000000     4.107000000
H    -1.902000000     2.689000000     4.097000000
O    -4.429000000     4.152000000    -2.032000000
H    -5.071000000     3.865000000    -1.383000000
H    -3.725000000     3.505000000    -1.974000000
O     2.762000000    -3.121000000    -4.731000000
H     2.359000000    -3.977000000    -4.583000000
H     3.698000000    -3.272000000    -4.601000000
O    -5.756000000    -2.102000000     1.780000000
H    -5.217000000    -1.446000000     1.337000000
H    -6.445000000    -1.597000000     2.209000000
O    -4.283000000    -4.111000000    -2.994000000
H    -4.839000000    -4.757000000    -2.558000000
H    -3.600000000    -3.912000000    -2.353000000
O    -4.829000000     1.355000000     2.230000000
H    -4.431000000     0.644000000     2.733000000
H    -4.693000000     1.106000000     1.316000000
O    -3.014000000     3.325000000     1.085000000
H    -2.764000000     3.768000000     1.896000000
H    -3.822000000     2.861000000     1.305000000
O    -3.952000000    -4.391000000     2.056000000
H    -3.705000000    -4.898000000     1.283000000
H    -4.669000000    -3.832000000     1.758000000
O    -7.608000000    -0.707000000     3.324000000
H    -7.713000000    -0.806000000     4.270000000
H    -7.966000000     0.160000000     3.133000000
O    -0.101000000     4.156000000     0.140000000
H    -0.165000000     3.304000000     0.571000000
H     0.490000000     4.009000000    -0.598000000
O    -2.457000000    -4.055000000    -0.798000000
H    -1.561000000    -3.899000000    -0.501000000
H    -2.898000000    -3.214000000    -0.678000000
O     0.209000000    -4.335000000     0.268000000
H     0.587000000    -3.800000000     0.966000000
H     0.851000000    -4.293000000    -0.440000000
O     5.524000000    -2.446000000     4.458000000
H     4.730000000    -2.288000000     3.947000000
H     5.220000000    -2.493000000     5.364000000
O     2.634000000     5.382000000    -0.982000000
H     1.891000000     5.509000000    -0.393000000
H     3.293000000     4.942000000    -0.446000000
O    -5.088000000    -2.142000000    -4.772000000
H    -5.884000000    -2.102000000    -4.242000000
H    -4.633000000    -2.925000000    -4.462000000
O     3.014000000    -0.868000000     3.710000000
H     2.945000000    -0.778000000     4.660000000
H     3.338000000    -0.018000000     3.412000000
O     3.508000000    -2.620000000    -0.219000000
H     2.918000000    -3.297000000    -0.550000000
H     3.845000000    -2.191000000    -1.005000000
O    -0.754000000    -2.213000000    -4.571000000
H    -1.505000000    -1.661000000    -4.354000000
H    -0.077000000    -1.952000000    -3.947000000
O     0.454000000     1.317000000    -2.986000000
H     0.741000000     0.756000000    -3.706000000
H     0.725000000     0.850000000    -2.195000000
O     5.443000000     5.658000000    -1.937000000
H     5.330000000     4.900000000    -1.365000000
H     6.336000000     5.957000000    -1.766000000
O    -6.031000000    -0.835000000    -1.203000000
H    -6.189000000    -1.460000000    -0.496000000
H    -5.115000000    -0.972000000    -1.444000000
O     4.600000000     1.386000000     3.939000000
H     5.194000000     0.988000000     4.575000000
H     5.155000000     1.973000000     3.426000000
O    -6.663000000     0.922000000    -3.372000000
H    -6.362000000     0.292000000    -2.717000000
H    -5.858000000     1.264000000    -3.762000000
O     0.794000000     4.658000000     4.674000000
H     0.365000000     4.139000000     3.993000000
H     1.404000000     4.049000000     5.091000000
O     4.167000000    -1.235000000    -2.504000000
H     3.973000000    -0.444000000    -3.007000000
H     5.063000000    -1.462000000    -2.753000000
O     4.353000000     3.418000000    -5.519000000
H     4.476000000     4.352000000    -5.353000000
H     4.173000000     3.043000000    -4.657000000
O     6.811000000    -1.924000000     2.251000000
H     6.064000000    -1.647000000     1.720000000
H     6.503000000    -1.851000000     3.154000000
O    -7.241000000    -3.076000000    -3.197000000
H    -7.433000000    -3.965000000    -3.496000000
H    -7.314000000    -3.124000000    -2.244000000
O     1.624000000    -0.487000000    -4.813000000
H     2.140000000    -1.290000000    -4.736000000
H     1.971000000    -0.054000000    -5.593000000
O     4.818000000     3.567000000     0.093000000
H     4.981000000     2.722000000    -0.327000000
H     5.286000000     3.514000000     0.926000000
O     2.499000000     2.790000000     5.570000000
H     3.190000000     2.504000000     4.973000000
H     2.656000000     2.295000000     6.374000000
O    -1.733000000    -2.600000000     2.967000000
H    -2.267000000    -3.104000000     2.354000000
H    -0.885000000    -2.513000000     2.531000000
O     7.445000000     0.778000000     0.586000000
H     7.036000000     1.547000000     0.982000000
H     8.381000000     0.894000000     0.749000000
O    -8.219000000     0.914000000    -0.199000000
H    -8.740000000     0.252000000     0.256000000
H    -7.459000000     0.435000000    -0.528000000
O     1.690000000    -4.052000000    -2.090000000
H     2.374000000    -3.482000000    -2.440000000
H     1.339000000    -4.505000000    -2.857000000
O     5.283000000     1.918000000    -2.003000000
H     5.868000000     2.394000000    -2.591000000
H     4.405000000     2.208000000    -2.251000000
