161
-3027.41114
C    -1.093000000     0.056000000     1.036000000
H    -1.737000000    -0.110000000     1.896000000
C     0.126000000     0.614000000     1.239000000
H     0.293000000     1.031000000     2.229000000
C     1.106000000     0.531000000     0.189000000
C     2.498000000     0.994000000     0.287000000
H     2.739000000     1.778000000     1.007000000
H     3.218000000     0.177000000     0.377000000
H     2.859000000     1.373000000    -0.672000000
C     0.709000000     0.044000000    -1.042000000
H     1.276000000     0.065000000    -1.969000000
C    -0.460000000    -0.633000000    -1.170000000
H    -0.720000000    -1.051000000    -2.139000000
C    -1.393000000    -0.653000000    -0.143000000
C    -2.781000000    -1.307000000    -0.324000000
O    -3.064000000    -1.709000000    -1.407000000
O    -3.573000000    -1.200000000     0.602000000
O    -4.078000000     0.099000000    -3.270000000
H    -3.971000000    -0.334000000    -4.117000000
H    -3.870000000    -0.579000000    -2.627000000
O    -0.427000000    -0.360000000     4.754000000
H     0.264000000    -0.296000000     4.094000000
H     0.013000000    -0.716000000     5.527000000
O    -2.490000000     4.128000000    -0.427000000
H    -2.162000000     3.915000000    -1.301000000
H    -3.344000000     3.698000000    -0.380000000
O    -4.533000000    -0.996000000     3.056000000
H    -4.338000000    -0.889000000     2.125000000
H    -3.796000000    -1.502000000     3.398000000
O     2.721000000    -3.864000000     2.182000000
H     3.355000000    -4.575000000     2.092000000
H     2.995000000    -3.215000000     1.534000000
O    -1.915000000     3.999000000     2.246000000
H    -2.119000000     3.990000000     1.311000000
H    -1.238000000     4.669000000     2.337000000
O    -2.661000000     1.010000000     5.079000000
H    -2.066000000     1.627000000     5.506000000
H    -2.086000000     0.343000000     4.705000000
O     1.540000000     2.114000000     5.310000000
H     0.593000000     2.125000000     5.170000000
H     1.821000000     1.262000000     4.977000000
O     2.575000000    -2.149000000    -1.758000000
H     1.884000000    -1.518000000    -1.560000000
H     2.367000000    -2.910000000    -1.215000000
O    -6.062000000    -2.761000000    -3.084000000
H    -6.268000000    -2.435000000    -2.208000000
H    -5.118000000    -2.917000000    -3.065000000
O    -6.887000000    -2.748000000     2.912000000
H    -7.452000000    -2.285000000     2.293000000
H    -6.050000000    -2.287000000     2.863000000
O    -5.016000000     3.276000000     0.353000000
H    -4.668000000     2.755000000     1.077000000
H    -5.507000000     2.649000000    -0.179000000
O    -1.873000000    -1.886000000    -5.523000000
H    -2.446000000    -2.269000000    -6.186000000
H    -1.085000000    -1.633000000    -6.004000000
O     2.503000000    -0.834000000     3.904000000
H     2.661000000    -1.117000000     3.003000000
H     3.375000000    -0.788000000     4.297000000
O     1.391000000     1.760000000    -6.081000000
H     1.324000000     2.705000000    -5.946000000
H     0.577000000     1.408000000    -5.722000000
O    -4.048000000     2.556000000     3.047000000
H    -3.767000000     1.849000000     3.628000000
H    -3.241000000     3.026000000     2.834000000
O     4.693000000     1.501000000    -3.399000000
H     5.539000000     1.161000000    -3.691000000
H     4.070000000     1.182000000    -4.052000000
O     3.802000000     0.218000000    -5.564000000
H     4.288000000     0.022000000    -6.365000000
H     2.994000000     0.630000000    -5.868000000
O    -3.296000000    -5.452000000    -1.754000000
H    -3.163000000    -5.049000000    -2.612000000
H    -3.802000000    -4.806000000    -1.261000000
O     0.090000000    -3.642000000     2.570000000
H     0.019000000    -3.410000000     1.644000000
H     0.994000000    -3.937000000     2.674000000
O    -6.485000000    -0.445000000     5.208000000
H    -6.155000000    -0.605000000     4.324000000
H    -6.830000000     0.447000000     5.177000000
O     0.500000000     5.968000000     2.950000000
H     1.218000000     5.374000000     2.732000000
H     0.510000000     6.622000000     2.250000000
O     1.649000000    -4.090000000    -0.257000000
H     0.936000000    -4.548000000    -0.703000000
H     2.223000000    -4.788000000     0.058000000
O     5.639000000    -4.274000000     0.988000000
H     5.169000000    -5.040000000     0.659000000
H     5.249000000    -3.535000000     0.520000000
O    -1.041000000     0.743000000    -4.857000000
H    -1.688000000     1.296000000    -5.295000000
H    -1.277000000    -0.149000000    -5.112000000
O    -7.593000000     1.252000000     1.586000000
H    -7.931000000     2.044000000     1.168000000
H    -7.006000000     1.574000000     2.271000000
O     5.949000000     2.225000000     0.375000000
H     6.094000000     2.161000000     1.319000000
H     6.775000000     1.940000000    -0.014000000
O    -7.959000000    -4.402000000     0.268000000
H    -7.339000000    -3.715000000     0.021000000
H    -7.880000000    -5.057000000    -0.425000000
O     3.160000000     3.400000000    -2.358000000
H     2.576000000     3.476000000    -3.112000000
H     3.835000000     2.782000000    -2.639000000
O    -3.151000000    -4.843000000     2.142000000
H    -2.858000000    -4.559000000     3.008000000
H    -3.154000000    -4.043000000     1.616000000
O    -8.050000000    -1.261000000     1.013000000
H    -7.938000000    -0.336000000     1.233000000
H    -8.883000000    -1.296000000     0.541000000
O     3.608000000    -2.219000000    -4.529000000
H     3.405000000    -2.015000000    -3.616000000
H     3.711000000    -1.365000000    -4.949000000
O     0.772000000     4.082000000     0.339000000
H     1.602000000     3.829000000     0.745000000
H     0.254000000     3.277000000     0.334000000
O     4.361000000     4.328000000     0.012000000
H     4.029000000     4.160000000    -0.870000000
H     4.960000000     3.601000000     0.185000000
O    -5.259000000     0.584000000    -0.709000000
H    -4.543000000     0.115000000    -0.281000000
H    -5.067000000     0.514000000    -1.644000000
O     1.088000000    -3.045000000    -4.954000000
H     2.004000000    -2.793000000    -4.833000000
H     1.092000000    -4.000000000    -4.888000000
O     2.852000000     4.154000000     2.410000000
H     3.354000000     4.222000000     1.598000000
H     3.441000000     3.712000000     3.021000000
O    -6.317000000     1.084000000    -4.439000000
H    -5.585000000     0.930000000    -3.842000000
H    -7.018000000     1.414000000    -3.877000000
O     4.112000000     2.946000000     4.442000000
H     4.916000000     2.435000000     4.531000000
H     3.455000000     2.445000000     4.926000000
O     4.610000000    -2.045000000    -0.082000000
H     3.995000000    -1.982000000    -0.812000000
H     5.373000000    -1.542000000    -0.367000000
O    -2.171000000     2.594000000    -2.754000000
H    -1.502000000     2.087000000    -2.294000000
H    -2.704000000     1.936000000    -3.201000000
O    -3.725000000    -5.476000000    -4.991000000
H    -4.663000000    -5.563000000    -5.161000000
H    -3.632000000    -4.605000000    -4.604000000
O     6.515000000     1.860000000     3.035000000
H     6.193000000     1.435000000     3.830000000
H     7.426000000     2.078000000     3.232000000
O    -2.131000000    -2.562000000     4.351000000
H    -1.415000000    -2.948000000     3.846000000
H    -1.737000000    -1.807000000     4.787000000
O     0.468000000     6.487000000    -0.884000000
H     0.622000000     5.566000000    -0.675000000
H     0.149000000     6.868000000    -0.066000000
O    -2.922000000    -3.401000000    -3.442000000
H    -2.418000000    -2.938000000    -4.112000000
H    -2.882000000    -2.830000000    -2.675000000
O    -5.859000000    -2.299000000    -0.409000000
H    -6.436000000    -1.832000000     0.195000000
H    -4.977000000    -2.027000000    -0.156000000
O     5.922000000    -0.346000000    -1.616000000
H     5.339000000     0.403000000    -1.492000000
H     6.159000000    -0.314000000    -2.543000000
