161
-3051.49731
C    -1.089000000    -0.330000000     0.870000000
H    -1.910000000    -0.409000000     1.578000000
C    -0.020000000     0.414000000     1.209000000
H     0.035000000     0.834000000     2.210000000
C     0.950000000     0.717000000     0.302000000
C     2.132000000     1.554000000     0.784000000
H     2.855000000     1.705000000    -0.020000000
H     1.743000000     2.539000000     1.048000000
H     2.599000000     0.966000000     1.577000000
C     0.803000000     0.230000000    -1.015000000
H     1.550000000     0.515000000    -1.752000000
C    -0.261000000    -0.555000000    -1.380000000
H    -0.318000000    -0.999000000    -2.371000000
C    -1.214000000    -0.894000000    -0.406000000
C    -2.314000000    -1.868000000    -0.766000000
O    -2.340000000    -2.352000000    -1.905000000
O    -3.206000000    -2.071000000     0.033000000
O    -1.188000000    -4.447000000    -3.282000000
H    -0.277000000    -4.229000000    -3.085000000
H    -1.699000000    -3.807000000    -2.786000000
O    -1.332000000     5.106000000     0.503000000
H    -0.701000000     4.914000000    -0.191000000
H    -2.185000000     4.943000000     0.102000000
O    -0.722000000    -3.610000000     2.930000000
H    -1.667000000    -3.554000000     2.787000000
H    -0.500000000    -2.796000000     3.383000000
O    -3.860000000    -2.928000000    -4.616000000
H    -3.942000000    -3.351000000    -3.761000000
H    -4.722000000    -3.032000000    -5.018000000
O    -0.204000000     0.741000000     6.734000000
H     0.686000000     0.956000000     6.453000000
H    -0.551000000     1.564000000     7.081000000
O     3.198000000     4.521000000    -0.327000000
H     3.599000000     4.575000000    -1.194000000
H     3.104000000     5.432000000    -0.049000000
O    -7.600000000    -0.277000000    -1.977000000
H    -7.701000000     0.430000000    -1.340000000
H    -6.710000000    -0.601000000    -1.836000000
O    -0.140000000    -5.757000000     1.519000000
H    -0.549000000    -5.012000000     1.959000000
H     0.713000000    -5.428000000     1.234000000
O    -2.234000000    -5.305000000    -0.386000000
H    -1.406000000    -5.453000000     0.071000000
H    -2.112000000    -4.470000000    -0.837000000
O    -0.037000000    -1.692000000     4.673000000
H    -0.293000000    -0.776000000     4.780000000
H     0.751000000    -1.785000000     5.207000000
O     3.848000000    -0.452000000    -4.389000000
H     3.667000000    -1.372000000    -4.197000000
H     4.508000000    -0.477000000    -5.082000000
O     3.129000000     4.116000000     5.194000000
H     3.310000000     4.097000000     4.254000000
H     2.679000000     4.950000000     5.334000000
O     2.375000000     1.676000000     6.030000000
H     3.165000000     1.215000000     5.749000000
H     2.529000000     2.588000000     5.784000000
O    -2.927000000    -0.415000000    -3.989000000
H    -3.161000000    -1.263000000    -4.365000000
H    -2.151000000    -0.595000000    -3.458000000
O    -4.555000000    -4.118000000    -2.051000000
H    -5.323000000    -3.872000000    -1.536000000
H    -3.822000000    -3.691000000    -1.607000000
O    -3.734000000     2.910000000     1.593000000
H    -4.538000000     2.412000000     1.740000000
H    -3.314000000     2.474000000     0.852000000
O     0.890000000    -1.565000000    -6.858000000
H     0.318000000    -2.101000000    -6.309000000
H     1.575000000    -2.167000000    -7.149000000
O     6.134000000     0.956000000     0.735000000
H     6.144000000     0.903000000    -0.220000000
H     5.621000000     0.197000000     1.012000000
O     5.234000000     0.161000000    -1.912000000
H     4.386000000     0.282000000    -2.340000000
H     5.084000000    -0.541000000    -1.279000000
O     1.431000000    -3.464000000    -2.600000000
H     2.064000000    -3.944000000    -3.133000000
H     1.937000000    -2.751000000    -2.211000000
O     4.987000000     1.957000000     3.208000000
H     5.378000000     1.516000000     2.454000000
H     4.784000000     2.838000000     2.892000000
O     1.998000000    -4.762000000    -0.023000000
H     2.568000000    -5.516000000    -0.178000000
H     1.850000000    -4.391000000    -0.893000000
O    -2.186000000     0.766000000     3.983000000
H    -1.616000000     1.319000000     3.449000000
H    -1.994000000     1.023000000     4.885000000
O     2.479000000    -3.019000000     3.896000000
H     3.228000000    -2.610000000     4.329000000
H     2.322000000    -2.475000000     3.124000000
O     0.738000000     3.535000000    -4.333000000
H     1.525000000     3.104000000    -4.667000000
H     0.165000000     3.611000000    -5.096000000
O     6.060000000     4.554000000     0.501000000
H     6.223000000     5.156000000     1.227000000
H     5.126000000     4.352000000     0.563000000
O     2.745000000     1.846000000    -5.023000000
H     2.442000000     1.564000000    -5.886000000
H     3.201000000     1.083000000    -4.669000000
O    -7.595000000    -1.601000000     1.283000000
H    -6.784000000    -1.094000000     1.299000000
H    -8.109000000    -1.254000000     2.012000000
O    -2.173000000    -6.695000000    -4.717000000
H    -2.718000000    -7.169000000    -4.089000000
H    -1.921000000    -5.894000000    -4.259000000
O     4.794000000    -1.762000000     0.422000000
H     5.526000000    -2.098000000     0.939000000
H     4.014000000    -2.069000000     0.885000000
O     0.709000000     4.019000000    -1.387000000
H     0.757000000     4.022000000    -2.343000000
H     1.615000000     4.133000000    -1.101000000
O    -1.114000000    -3.356000000    -5.952000000
H    -1.367000000    -3.358000000    -5.029000000
H    -1.907000000    -3.088000000    -6.417000000
O    -2.286000000     1.351000000    -6.328000000
H    -2.182000000     0.808000000    -5.546000000
H    -3.111000000     1.057000000    -6.715000000
O     3.317000000     4.518000000     2.582000000
H     3.030000000     5.431000000     2.598000000
H     3.388000000     4.305000000     1.652000000
O    -3.439000000    -3.482000000     2.470000000
H    -3.449000000    -3.176000000     1.563000000
H    -4.362000000    -3.604000000     2.691000000
O    -7.103000000    -3.943000000    -0.279000000
H    -7.587000000    -3.357000000    -0.861000000
H    -7.277000000    -3.604000000     0.599000000
O    -0.084000000     0.937000000    -4.174000000
H     0.191000000     1.704000000    -3.672000000
H     0.719000000     0.619000000    -4.587000000
O    -2.892000000    -3.044000000     5.273000000
H    -3.309000000    -2.939000000     4.418000000
H    -1.956000000    -2.945000000     5.098000000
O    -2.288000000     3.477000000    -3.300000000
H    -2.210000000     4.300000000    -3.783000000
H    -2.050000000     2.802000000    -3.936000000
O    -5.093000000    -1.013000000    -1.486000000
H    -4.696000000    -1.681000000    -0.927000000
H    -4.468000000    -0.896000000    -2.201000000
O     5.047000000     0.703000000     5.506000000
H     5.967000000     0.769000000     5.760000000
H     4.921000000     1.408000000     4.871000000
O     2.281000000    -2.141000000     1.211000000
H     1.683000000    -1.508000000     0.815000000
H     1.906000000    -2.994000000     0.992000000
O    -4.797000000    -0.022000000     3.874000000
H    -5.003000000    -0.016000000     2.939000000
H    -3.891000000     0.282000000     3.921000000
O    -3.206000000     1.856000000    -0.784000000
H    -2.966000000     2.447000000    -1.497000000
H    -2.497000000     1.213000000    -0.757000000
O    -1.167000000     3.233000000     2.657000000
H    -2.110000000     3.378000000     2.585000000
H    -0.805000000     3.600000000     1.851000000
O     1.755000000     6.659000000     1.059000000
H     1.573000000     7.595000000     1.145000000
H     1.137000000     6.239000000     1.658000000
O    -5.489000000     0.630000000     1.331000000
H    -5.080000000     0.183000000     0.589000000
H    -6.232000000     1.097000000     0.949000000
O    -0.949000000     5.410000000     4.751000000
H    -0.924000000     6.049000000     4.038000000
H    -0.959000000     4.560000000     4.310000000
