161
-3066.80385
C    -1.450000000    -0.306000000    -0.064000000
H    -2.514000000    -0.523000000    -0.087000000
C    -0.773000000     0.550000000    -0.960000000
H    -1.299000000     1.083000000    -1.749000000
C     0.591000000     0.848000000    -0.734000000
C     1.296000000     1.622000000    -1.751000000
H     1.515000000     2.602000000    -1.321000000
H     2.133000000     0.976000000    -2.022000000
H     0.750000000     1.906000000    -2.653000000
C     1.279000000     0.199000000     0.302000000
H     2.335000000     0.376000000     0.489000000
C     0.640000000    -0.711000000     1.188000000
H     1.133000000    -1.122000000     2.065000000
C    -0.745000000    -0.938000000     0.997000000
C    -1.450000000    -1.943000000     1.833000000
O    -0.777000000    -2.544000000     2.669000000
O    -2.667000000    -2.079000000     1.790000000
O    -4.617000000    -1.813000000    -1.603000000
H    -4.017000000    -2.558000000    -1.643000000
H    -4.411000000    -1.383000000    -0.773000000
O     1.065000000    -2.227000000     4.813000000
H     1.953000000    -2.475000000     4.556000000
H     0.560000000    -2.268000000     4.001000000
O     1.078000000     1.709000000     4.955000000
H     0.858000000     2.191000000     5.752000000
H     1.822000000     1.160000000     5.205000000
O    -3.098000000    -2.509000000    -3.778000000
H    -4.034000000    -2.418000000    -3.956000000
H    -3.044000000    -3.213000000    -3.132000000
O    -4.223000000    -0.035000000     2.345000000
H    -3.701000000    -0.762000000     2.006000000
H    -4.395000000     0.514000000     1.580000000
O     3.598000000    -2.767000000    -5.398000000
H     2.722000000    -2.381000000    -5.398000000
H     4.186000000    -2.023000000    -5.529000000
O    -1.779000000    -4.939000000     3.463000000
H    -1.309000000    -4.156000000     3.176000000
H    -2.696000000    -4.758000000     3.255000000
O    -4.683000000    -2.818000000     7.108000000
H    -4.853000000    -3.760000000     7.091000000
H    -4.444000000    -2.602000000     6.206000000
O     5.275000000     0.039000000    -3.030000000
H     5.117000000     0.898000000    -3.421000000
H     6.012000000     0.178000000    -2.436000000
O     4.483000000     5.075000000     0.850000000
H     4.058000000     5.471000000     1.611000000
H     5.402000000     4.992000000     1.105000000
O    -3.174000000     0.367000000    -4.857000000
H    -3.558000000     0.249000000    -5.726000000
H    -2.843000000    -0.499000000    -4.621000000
O    -2.410000000    -1.934000000     4.789000000
H    -1.713000000    -1.857000000     4.138000000
H    -2.004000000    -2.399000000     5.521000000
O     0.623000000    -2.441000000     7.649000000
H     0.360000000    -2.479000000     6.729000000
H     0.817000000    -1.516000000     7.805000000
O    -1.903000000     3.114000000     0.665000000
H    -1.835000000     2.393000000     0.039000000
H    -1.398000000     2.821000000     1.423000000
O    -6.923000000    -0.740000000    -2.251000000
H    -6.606000000     0.063000000    -2.665000000
H    -6.128000000    -1.228000000    -2.035000000
O    -0.505000000     1.687000000    -4.877000000
H    -1.228000000     1.090000000    -5.070000000
H    -0.036000000     1.269000000    -4.154000000
O     1.144000000    -1.860000000    -6.300000000
H     0.645000000    -2.472000000    -6.840000000
H     0.533000000    -1.594000000    -5.613000000
O     3.327000000    -2.082000000    -2.362000000
H     3.506000000    -2.611000000    -3.139000000
H     3.784000000    -1.256000000    -2.523000000
O    -0.609000000    -1.098000000    -3.833000000
H    -0.105000000    -1.330000000    -3.053000000
H    -1.353000000    -1.699000000    -3.826000000
O     3.728000000    -2.679000000     3.369000000
H     4.405000000    -2.281000000     3.918000000
H     4.140000000    -2.771000000     2.510000000
O     0.627000000    -2.865000000    -2.199000000
H     1.476000000    -2.444000000    -2.061000000
H     0.515000000    -3.433000000    -1.436000000
O    -5.510000000     1.340000000    -3.138000000
H    -5.144000000     1.929000000    -2.478000000
H    -4.746000000     0.931000000    -3.544000000
O    -5.438000000    -5.804000000     0.673000000
H    -5.504000000    -5.978000000    -0.266000000
H    -6.209000000    -6.227000000     1.050000000
O     1.956000000    -6.398000000     2.959000000
H     1.708000000    -6.102000000     2.084000000
H     2.856000000    -6.708000000     2.860000000
O     3.103000000     7.064000000    -3.226000000
H     2.964000000     6.369000000    -2.583000000
H     3.282000000     6.601000000    -4.044000000
O     3.479000000     0.403000000     4.346000000
H     2.781000000     0.237000000     3.712000000
H     4.108000000    -0.303000000     4.200000000
O     2.681000000     5.201000000    -1.215000000
H     3.348000000     5.138000000    -0.532000000
H     1.856000000     5.032000000    -0.760000000
O    -5.451000000    -1.935000000     3.953000000
H    -4.701000000    -2.495000000     3.750000000
H    -5.196000000    -1.069000000     3.635000000
O     4.225000000    -2.631000000     0.756000000
H     4.330000000    -2.034000000     0.015000000
H     3.590000000    -3.280000000     0.453000000
O    -1.668000000    -5.758000000     0.161000000
H    -1.977000000    -6.373000000     0.826000000
H    -1.424000000    -6.310000000    -0.581000000
O    -2.434000000     3.074000000     4.329000000
H    -3.346000000     2.870000000     4.532000000
H    -2.020000000     2.220000000     4.204000000
O    -0.270000000     5.714000000    -2.698000000
H    -0.376000000     6.598000000    -2.345000000
H    -0.031000000     5.181000000    -1.940000000
O    -0.352000000     2.090000000     2.415000000
H     0.025000000     2.183000000     3.290000000
H    -0.025000000     1.247000000     2.101000000
O    -3.169000000     0.493000000     4.626000000
H    -3.028000000    -0.452000000     4.683000000
H    -3.726000000     0.606000000     3.855000000
O     0.140000000     5.203000000    -0.093000000
H    -0.492000000     4.531000000     0.160000000
H     0.478000000     5.539000000     0.737000000
O    -4.338000000     1.618000000     0.144000000
H    -3.951000000     1.683000000    -0.729000000
H    -4.895000000     2.393000000     0.218000000
O    -4.202000000    -4.070000000     2.687000000
H    -3.700000000    -3.429000000     2.184000000
H    -4.887000000    -4.363000000     2.086000000
O     6.154000000     2.522000000    -3.997000000
H     5.352000000     2.800000000    -3.554000000
H     6.819000000     3.143000000    -3.700000000
O    -7.904000000     0.154000000     1.664000000
H    -8.177000000    -0.121000000     0.789000000
H    -7.009000000    -0.176000000     1.750000000
O     2.149000000     3.035000000    -5.047000000
H     1.283000000     2.713000000    -5.295000000
H     2.144000000     3.958000000    -5.301000000
O     0.413000000    -4.178000000     0.140000000
H     0.652000000    -3.906000000     1.027000000
H    -0.309000000    -4.794000000     0.265000000
O    -3.346000000     3.091000000    -2.029000000
H    -3.046000000     3.636000000    -2.756000000
H    -3.449000000     3.702000000    -1.299000000
O    -3.438000000    -4.638000000    -2.064000000
H    -3.013000000    -5.076000000    -1.326000000
H    -4.137000000    -5.236000000    -2.328000000
O     3.792000000     3.229000000    -2.976000000
H     3.311000000     3.886000000    -2.472000000
H     3.225000000     3.038000000    -3.723000000
O    -1.082000000    -3.951000000     6.331000000
H    -0.700000000    -4.623000000     5.766000000
H    -0.706000000    -4.122000000     7.194000000
O    -2.397000000     4.321000000    -4.271000000
H    -1.681000000     4.838000000    -3.900000000
H    -2.007000000     3.465000000    -4.449000000
O     0.289000000    -6.143000000     5.085000000
H    -0.452000000    -5.807000000     4.580000000
H     0.955000000    -6.344000000     4.427000000
O     2.939000000     0.380000000    -5.896000000
H     2.052000000     0.045000000    -6.027000000
H     2.819000000     1.315000000    -5.727000000
