161
-3036.47201
C    -0.606000000    -1.176000000    -0.735000000
H    -1.018000000    -1.973000000    -1.349000000
C     0.471000000    -0.394000000    -1.173000000
H     0.915000000    -0.641000000    -2.134000000
C     0.913000000     0.714000000    -0.416000000
C     2.138000000     1.458000000    -0.942000000
H     2.643000000     1.919000000    -0.091000000
H     2.841000000     0.872000000    -1.538000000
H     1.698000000     2.304000000    -1.475000000
C     0.353000000     0.984000000     0.861000000
H     0.802000000     1.720000000     1.522000000
C    -0.791000000     0.233000000     1.297000000
H    -1.396000000     0.589000000     2.127000000
C    -1.202000000    -0.825000000     0.472000000
C    -2.353000000    -1.640000000     1.004000000
O    -2.596000000    -1.615000000     2.217000000
O    -2.811000000    -2.528000000     0.356000000
O    -0.677000000     5.309000000     5.375000000
H    -0.311000000     4.808000000     4.647000000
H     0.065000000     5.803000000     5.723000000
O    -2.091000000    -5.822000000     0.966000000
H    -2.347000000    -6.542000000     1.542000000
H    -1.313000000    -6.145000000     0.511000000
O    -1.555000000    -0.470000000     4.534000000
H    -1.869000000    -0.754000000     3.676000000
H    -1.541000000    -1.270000000     5.060000000
O    -0.472000000     6.134000000     1.218000000
H    -1.250000000     5.942000000     0.693000000
H    -0.553000000     7.063000000     1.435000000
O    -3.185000000    -3.281000000    -4.319000000
H    -3.633000000    -2.629000000    -3.780000000
H    -2.625000000    -3.756000000    -3.705000000
O     2.235000000    -3.385000000     0.058000000
H     1.568000000    -2.956000000     0.594000000
H     2.229000000    -4.296000000     0.352000000
O    -3.784000000    -1.377000000    -2.061000000
H    -3.845000000    -1.613000000    -1.136000000
H    -3.490000000    -0.466000000    -2.057000000
O     1.400000000     0.351000000     3.835000000
H     1.661000000    -0.563000000     3.726000000
H     0.450000000     0.344000000     3.719000000
O    -1.987000000     4.068000000    -3.576000000
H    -2.512000000     4.136000000    -4.373000000
H    -1.824000000     3.130000000    -3.475000000
O    -5.657000000    -4.863000000    -1.586000000
H    -5.138000000    -5.020000000    -0.797000000
H    -5.975000000    -3.965000000    -1.489000000
O    -1.819000000    -4.123000000     3.048000000
H    -2.181000000    -3.248000000     2.903000000
H    -1.794000000    -4.519000000     2.176000000
O     4.262000000    -1.207000000    -1.462000000
H     3.470000000    -1.295000000    -0.931000000
H     4.770000000    -0.525000000    -1.023000000
O     0.877000000     2.902000000    -4.754000000
H     1.137000000     3.774000000    -4.457000000
H     1.696000000     2.488000000    -5.026000000
O     5.202000000     0.864000000     0.003000000
H     6.046000000     1.277000000     0.188000000
H     4.566000000     1.392000000     0.485000000
O    -5.062000000    -0.764000000     2.902000000
H    -4.485000000    -0.004000000     2.984000000
H    -4.589000000    -1.364000000     2.326000000
O    -3.985000000     1.574000000     1.669000000
H    -3.369000000     1.294000000     0.992000000
H    -4.716000000     0.961000000     1.595000000
O    -2.474000000     5.231000000    -0.486000000
H    -2.472000000     6.176000000    -0.640000000
H    -2.231000000     4.850000000    -1.330000000
O     2.666000000     2.828000000     3.220000000
H     2.282000000     1.953000000     3.283000000
H     1.914000000     3.412000000     3.120000000
O     2.421000000     4.006000000     6.205000000
H     2.517000000     3.061000000     6.318000000
H     2.371000000     4.130000000     5.257000000
O     4.116000000    -2.425000000    -3.797000000
H     4.165000000    -1.995000000    -2.943000000
H     3.992000000    -3.351000000    -3.592000000
O     6.736000000     1.786000000    -2.820000000
H     6.056000000     1.120000000    -2.718000000
H     7.327000000     1.640000000    -2.082000000
O     0.179000000    -2.102000000    -5.217000000
H    -0.745000000    -2.123000000    -4.969000000
H     0.648000000    -2.029000000    -4.386000000
O     5.934000000    -1.039000000     2.293000000
H     6.291000000    -0.379000000     2.887000000
H     6.011000000    -0.646000000     1.423000000
O     2.427000000    -4.288000000    -2.530000000
H     1.564000000    -4.515000000    -2.876000000
H     2.248000000    -3.913000000    -1.668000000
O    -6.038000000    -0.662000000     0.351000000
H    -5.782000000    -1.020000000    -0.499000000
H    -6.993000000    -0.607000000     0.310000000
O    -4.451000000    -4.416000000     0.869000000
H    -3.810000000    -3.715000000     0.750000000
H    -3.953000000    -5.131000000     1.266000000
O     3.684000000     1.791000000    -4.865000000
H     4.087000000     0.976000000    -5.165000000
H     4.169000000     2.479000000    -5.320000000
O    -3.445000000    -6.484000000    -2.389000000
H    -3.364000000    -7.417000000    -2.191000000
H    -4.287000000    -6.231000000    -2.011000000
O     4.339000000     3.834000000    -0.178000000
H     4.571000000     3.866000000    -1.106000000
H     3.456000000     4.201000000    -0.139000000
O    -7.211000000    -0.462000000     4.362000000
H    -6.434000000    -0.842000000     3.953000000
H    -7.654000000     0.002000000     3.652000000
O     0.321000000     5.683000000    -4.106000000
H     0.545000000     6.022000000    -3.239000000
H    -0.635000000     5.633000000    -4.104000000
O     0.665000000     4.538000000     3.110000000
H     0.122000000     4.956000000     2.442000000
H     1.076000000     5.266000000     3.576000000
O     5.578000000    -3.719000000    -0.593000000
H     4.760000000    -4.184000000    -0.416000000
H     5.319000000    -2.801000000    -0.673000000
O     0.110000000    -5.471000000    -3.798000000
H     0.416000000    -6.378000000    -3.826000000
H    -0.469000000    -5.437000000    -3.037000000
O    -2.721000000     3.593000000     2.887000000
H    -1.858000000     3.330000000     2.566000000
H    -3.331000000     3.003000000     2.445000000
O     1.774000000     4.909000000    -0.048000000
H     0.998000000     4.944000000     0.512000000
H     1.668000000     5.646000000    -0.650000000
O     1.941000000     1.096000000     6.589000000
H     1.071000000     1.154000000     6.984000000
H     1.784000000     1.192000000     5.650000000
O    -6.740000000    -3.776000000     2.186000000
H    -7.216000000    -3.003000000     1.882000000
H    -6.077000000    -3.929000000     1.513000000
O     0.954000000    -2.899000000     2.778000000
H     1.400000000    -3.610000000     3.239000000
H     0.024000000    -3.058000000     2.935000000
O    -3.469000000     1.380000000     6.284000000
H    -3.034000000     2.102000000     6.737000000
H    -2.842000000     1.104000000     5.615000000
O    -3.526000000     1.226000000    -1.813000000
H    -4.090000000     1.989000000    -1.680000000
H    -2.736000000     1.581000000    -2.219000000
O     4.630000000     4.308000000     2.399000000
H     4.568000000     4.054000000     1.478000000
H     3.857000000     3.919000000     2.807000000
O    -1.470000000    -4.400000000    -1.625000000
H    -2.127000000    -5.095000000    -1.673000000
H    -1.822000000    -3.782000000    -0.984000000
O     4.877000000     3.994000000    -2.944000000
H     5.597000000     3.370000000    -3.029000000
H     4.191000000     3.649000000    -3.516000000
O    -4.276000000    -3.058000000     4.661000000
H    -4.801000000    -2.799000000     3.904000000
H    -3.423000000    -3.287000000     4.294000000
O    -0.969000000     1.489000000    -3.047000000
H    -0.463000000     1.941000000    -3.722000000
H    -0.320000000     1.233000000    -2.391000000
O    -0.695000000    -6.056000000     4.790000000
H    -1.114000000    -5.354000000     4.292000000
H     0.042000000    -6.330000000     4.245000000
O     3.492000000    -0.876000000    -6.034000000
H     2.821000000    -1.280000000    -6.583000000
H     3.535000000    -1.435000000    -5.258000000
