161
-3039.67682
C     0.454000000     1.174000000     0.761000000
H     0.672000000     2.035000000     1.389000000
C     0.197000000    -0.079000000     1.270000000
H     0.247000000    -0.194000000     2.350000000
C    -0.322000000    -1.039000000     0.447000000
C    -0.635000000    -2.355000000     1.078000000
H    -0.060000000    -3.221000000     0.745000000
H    -0.539000000    -2.351000000     2.166000000
H    -1.674000000    -2.637000000     0.898000000
C    -0.437000000    -0.856000000    -0.945000000
H    -0.780000000    -1.672000000    -1.577000000
C     0.013000000     0.330000000    -1.494000000
H     0.095000000     0.482000000    -2.567000000
C     0.355000000     1.368000000    -0.634000000
C     0.731000000     2.660000000    -1.190000000
O     1.016000000     2.811000000    -2.317000000
O     0.673000000     3.551000000    -0.379000000
O    -1.411000000     1.046000000     5.270000000
H    -2.161000000     0.519000000     4.996000000
H    -1.377000000     1.762000000     4.636000000
O    -3.186000000     3.596000000     0.938000000
H    -2.946000000     4.519000000     1.021000000
H    -3.492000000     3.508000000     0.035000000
O    -0.449000000     3.662000000     4.438000000
H    -0.822000000     4.123000000     5.189000000
H    -1.048000000     3.855000000     3.717000000
O     1.411000000    -7.243000000     3.392000000
H     1.662000000    -7.554000000     2.522000000
H     0.572000000    -6.802000000     3.256000000
O     3.781000000    -1.393000000     3.376000000
H     4.037000000    -0.498000000     3.597000000
H     4.610000000    -1.849000000     3.227000000
O    -2.746000000     7.033000000     1.235000000
H    -2.445000000     7.281000000     2.109000000
H    -2.009000000     6.556000000     0.854000000
O     2.662000000     2.203000000     4.296000000
H     2.130000000     2.624000000     3.620000000
H     3.450000000     2.743000000     4.352000000
O    -5.767000000    -4.635000000    -0.648000000
H    -5.758000000    -5.502000000    -1.054000000
H    -5.917000000    -4.031000000    -1.376000000
O    -3.360000000    -0.932000000     4.412000000
H    -3.979000000    -0.805000000     5.131000000
H    -3.911000000    -1.031000000     3.636000000
O    -6.213000000    -3.857000000     1.923000000
H    -7.017000000    -3.397000000     1.680000000
H    -5.911000000    -4.259000000     1.108000000
O     2.587000000    -3.973000000    -3.055000000
H     1.645000000    -3.815000000    -2.998000000
H     2.677000000    -4.922000000    -2.969000000
O    -4.452000000    -1.224000000    -4.606000000
H    -4.233000000    -1.962000000    -5.174000000
H    -5.409000000    -1.196000000    -4.608000000
O     3.897000000     1.834000000     0.519000000
H     4.471000000     1.651000000     1.263000000
H     3.464000000     2.656000000     0.747000000
O    -2.051000000    -6.932000000     1.240000000
H    -2.923000000    -7.281000000     1.423000000
H    -1.754000000    -6.579000000     2.079000000
O     3.418000000    -1.226000000     0.396000000
H     3.338000000    -0.283000000     0.255000000
H     3.250000000    -1.343000000     1.331000000
O    -0.206000000     4.625000000    -7.026000000
H    -0.158000000     4.139000000    -6.203000000
H    -0.929000000     4.218000000    -7.503000000
O    -2.601000000     0.576000000    -5.015000000
H    -3.422000000     0.089000000    -5.086000000
H    -2.867000000     1.495000000    -5.015000000
O     2.364000000     5.221000000    -1.759000000
H     1.987000000     5.957000000    -1.277000000
H     1.919000000     4.450000000    -1.405000000
O    -4.256000000    -4.427000000     5.834000000
H    -3.427000000    -4.826000000     6.098000000
H    -4.033000000    -3.891000000     5.074000000
O    -3.632000000    -2.379000000    -2.255000000
H    -3.365000000    -3.228000000    -2.609000000
H    -3.915000000    -1.879000000    -3.020000000
O    -1.234000000    -5.975000000     3.524000000
H    -0.998000000    -5.106000000     3.850000000
H    -1.673000000    -6.397000000     4.262000000
O     1.726000000    -3.010000000     6.795000000
H     0.784000000    -3.002000000     6.625000000
H     2.107000000    -2.536000000     6.056000000
O     0.980000000     7.653000000    -0.320000000
H     1.573000000     8.130000000     0.261000000
H     0.839000000     8.245000000    -1.058000000
O     4.231000000     1.715000000    -2.113000000
H     4.025000000     1.750000000    -1.179000000
H     3.941000000     0.845000000    -2.389000000
O    -3.850000000     3.773000000    -1.634000000
H    -3.197000000     3.599000000    -2.312000000
H    -4.331000000     4.536000000    -1.955000000
O     2.258000000     3.971000000     1.847000000
H     1.721000000     3.743000000     1.089000000
H     2.834000000     4.668000000     1.531000000
O    -1.281000000    -5.393000000    -0.921000000
H    -1.560000000    -5.782000000    -0.092000000
H    -1.965000000    -4.755000000    -1.128000000
O    -0.052000000     0.617000000    -5.869000000
H    -0.884000000     0.642000000    -5.395000000
H     0.615000000     0.686000000    -5.186000000
O    -0.651000000    -3.350000000     4.906000000
H    -1.416000000    -2.796000000     4.750000000
H     0.058000000    -2.919000000     4.429000000
O     2.014000000     0.997000000    -4.123000000
H     2.887000000     1.277000000    -4.395000000
H     1.734000000     1.661000000    -3.493000000
O     0.936000000     6.498000000     3.422000000
H     0.425000000     6.385000000     2.622000000
H     1.140000000     5.607000000     3.705000000
O    -0.317000000    -3.781000000    -3.333000000
H    -0.363000000    -4.369000000    -2.579000000
H    -1.147000000    -3.915000000    -3.791000000
O    -1.604000000    -0.785000000    -7.967000000
H    -1.220000000    -0.543000000    -7.124000000
H    -0.895000000    -0.661000000    -8.598000000
O     4.361000000     4.337000000    -3.122000000
H     3.728000000     4.860000000    -2.630000000
H     4.413000000     3.510000000    -2.642000000
O     0.356000000     4.599000000    -4.248000000
H     0.773000000     4.024000000    -3.606000000
H     0.935000000     5.359000000    -4.302000000
O     3.835000000     6.123000000     0.881000000
H     4.219000000     6.694000000     1.547000000
H     3.981000000     6.586000000     0.056000000
O    -3.280000000    -4.881000000    -3.103000000
H    -3.657000000    -5.508000000    -2.486000000
H    -2.856000000    -5.425000000    -3.767000000
O     1.125000000     1.505000000    -7.996000000
H     0.728000000     0.972000000    -8.684000000
H     0.580000000     1.345000000    -7.225000000
O    -5.118000000    -1.237000000     2.166000000
H    -5.205000000    -0.867000000     1.288000000
H    -5.222000000    -2.180000000     2.040000000
O     1.115000000     0.603000000     5.943000000
H     0.250000000     0.909000000     5.669000000
H     1.727000000     1.088000000     5.390000000
O    -6.520000000    -1.563000000    -0.925000000
H    -5.616000000    -1.690000000    -1.216000000
H    -6.528000000    -0.684000000    -0.545000000
O    -3.825000000    -0.064000000    -0.532000000
H    -3.111000000    -0.141000000     0.100000000
H    -3.659000000    -0.761000000    -1.167000000
O     2.612000000    -1.651000000    -4.923000000
H     2.605000000    -2.290000000    -4.211000000
H     2.009000000    -0.965000000    -4.636000000
O    -0.367000000     5.704000000     1.041000000
H     0.125000000     6.343000000     0.525000000
H    -0.091000000     4.854000000     0.696000000
O    -1.930000000     1.743000000     2.673000000
H    -2.258000000     2.474000000     2.149000000
H    -1.402000000     1.229000000     2.062000000
O     1.360000000    -1.644000000     4.356000000
H     2.250000000    -1.512000000     4.029000000
H     1.216000000    -0.915000000     4.959000000
O     1.581000000    -6.446000000    -2.216000000
H     1.620000000    -6.703000000    -3.137000000
H     0.659000000    -6.545000000    -1.978000000
O    -1.990000000     3.174000000    -4.234000000
H    -1.193000000     2.791000000    -3.867000000
H    -1.720000000     4.040000000    -4.540000000
