161
-3031.54735
C     0.243000000     1.378000000     0.473000000
H     0.628000000     2.297000000     0.908000000
C     0.080000000     0.224000000     1.332000000
H     0.191000000     0.227000000     2.413000000
C    -0.164000000    -0.984000000     0.745000000
C    -0.157000000    -2.254000000     1.544000000
H    -1.075000000    -2.272000000     2.134000000
H    -0.119000000    -3.168000000     0.949000000
H     0.718000000    -2.155000000     2.190000000
C    -0.309000000    -1.059000000    -0.621000000
H    -0.531000000    -2.031000000    -1.053000000
C    -0.183000000     0.095000000    -1.466000000
H    -0.348000000    -0.103000000    -2.523000000
C     0.058000000     1.346000000    -0.908000000
C     0.271000000     2.495000000    -1.812000000
O     0.084000000     2.443000000    -3.017000000
O     0.614000000     3.516000000    -1.285000000
O    -1.447000000    -0.126000000     5.794000000
H    -1.753000000    -0.972000000     5.466000000
H    -0.570000000    -0.305000000     6.134000000
O    -4.200000000    -3.697000000     6.046000000
H    -4.018000000    -3.190000000     5.255000000
H    -3.451000000    -4.288000000     6.129000000
O    -3.439000000     2.778000000    -7.227000000
H    -3.696000000     3.694000000    -7.328000000
H    -3.201000000     2.697000000    -6.303000000
O    -2.046000000     7.430000000     0.860000000
H    -1.250000000     7.615000000     1.357000000
H    -1.774000000     6.793000000     0.199000000
O     2.853000000     3.532000000     1.094000000
H     2.062000000     4.038000000     1.277000000
H     3.055000000     3.096000000     1.922000000
O    -3.366000000     1.359000000     4.452000000
H    -2.989000000     0.524000000     4.730000000
H    -3.439000000     1.283000000     3.500000000
O     3.740000000    -1.551000000     3.331000000
H     4.027000000    -2.294000000     2.800000000
H     3.414000000    -0.915000000     2.696000000
O    -1.744000000     3.115000000     2.867000000
H    -2.388000000     2.914000000     2.188000000
H    -1.870000000     2.433000000     3.527000000
O    -0.559000000    -5.733000000     2.288000000
H    -1.181000000    -5.402000000     1.640000000
H    -1.033000000    -5.693000000     3.118000000
O    -0.021000000    -2.811000000     6.379000000
H    -0.193000000    -2.803000000     7.321000000
H     0.733000000    -2.231000000     6.269000000
O     3.866000000    -3.003000000     0.625000000
H     3.164000000    -3.490000000     1.057000000
H     4.157000000    -3.579000000    -0.082000000
O     1.470000000     0.559000000     7.728000000
H     2.173000000     1.149000000     7.458000000
H     1.462000000    -0.127000000     7.060000000
O    -3.334000000    -1.748000000     3.773000000
H    -3.916000000    -1.448000000     3.074000000
H    -2.831000000    -2.460000000     3.377000000
O     1.051000000    -3.134000000    -6.155000000
H     1.021000000    -2.483000000    -6.857000000
H     1.774000000    -2.850000000    -5.596000000
O     3.398000000     4.828000000    -5.059000000
H     2.464000000     4.656000000    -4.946000000
H     3.761000000     4.771000000    -4.176000000
O    -0.555000000     6.368000000    -3.390000000
H    -0.511000000     5.934000000    -2.538000000
H    -0.719000000     7.288000000    -3.182000000
O     3.808000000     6.291000000    -2.053000000
H     3.748000000     5.372000000    -1.793000000
H     3.177000000     6.741000000    -1.492000000
O     4.175000000     1.073000000     2.141000000
H     3.837000000     1.007000000     1.248000000
H     5.090000000     1.332000000     2.031000000
O     2.836000000    -1.569000000    -4.548000000
H     2.382000000    -2.003000000    -3.826000000
H     2.589000000    -0.648000000    -4.467000000
O    -1.681000000     2.414000000     6.950000000
H    -1.216000000     2.203000000     7.760000000
H    -1.849000000     1.565000000     6.541000000
O    -3.937000000     2.262000000     1.494000000
H    -4.284000000     1.651000000     0.844000000
H    -4.268000000     3.118000000     1.220000000
O     1.029000000     4.458000000    -4.362000000
H     0.620000000     5.311000000    -4.214000000
H     0.623000000     3.882000000    -3.715000000
O    -3.144000000    -0.329000000     0.309000000
H    -2.226000000    -0.140000000     0.503000000
H    -3.266000000    -0.021000000    -0.589000000
O     3.920000000     0.841000000    -2.539000000
H     3.742000000     0.226000000    -1.827000000
H     3.751000000     1.703000000    -2.159000000
O    -4.300000000     4.949000000     0.403000000
H    -5.084000000     4.940000000    -0.147000000
H    -3.572000000     4.950000000    -0.218000000
O     3.203000000    -0.545000000    -0.193000000
H     2.482000000    -0.738000000    -0.792000000
H     3.535000000    -1.404000000     0.067000000
O     3.107000000     3.459000000    -1.653000000
H     2.187000000     3.654000000    -1.832000000
H     3.147000000     3.345000000    -0.703000000
O    -2.682000000     4.674000000    -4.184000000
H    -1.840000000     4.964000000    -3.835000000
H    -3.102000000     5.476000000    -4.494000000
O    -3.731000000     0.295000000    -2.428000000
H    -4.430000000    -0.297000000    -2.706000000
H    -3.291000000     0.544000000    -3.240000000
O     2.225000000    -1.269000000     5.816000000
H     2.933000000    -1.823000000     6.144000000
H     2.431000000    -1.142000000     4.889000000
O     1.679000000     1.078000000    -4.830000000
H     2.605000000     1.302000000    -4.728000000
H     1.226000000     1.647000000    -4.207000000
O     5.409000000     4.082000000    -0.158000000
H     4.636000000     3.751000000    -0.614000000
H     5.126000000     4.915000000     0.220000000
O     1.622000000    -3.158000000    -2.659000000
H     0.770000000    -3.507000000    -2.395000000
H     2.257000000    -3.770000000    -2.288000000
O    -2.025000000    -2.470000000    -7.201000000
H    -2.803000000    -2.967000000    -6.949000000
H    -1.784000000    -1.986000000    -6.411000000
O     1.742000000     7.230000000    -0.388000000
H     1.601000000     8.152000000    -0.607000000
H     1.861000000     7.225000000     0.562000000
O     0.285000000     3.360000000    -6.862000000
H     0.470000000     3.628000000    -5.962000000
H    -0.587000000     3.713000000    -7.042000000
O    -0.544000000    -4.616000000    -2.306000000
H    -0.193000000    -5.415000000    -2.699000000
H    -1.271000000    -4.367000000    -2.876000000
O    -3.435000000    -3.319000000     1.284000000
H    -3.342000000    -2.484000000     0.826000000
H    -2.957000000    -3.945000000     0.741000000
O     2.255000000     2.876000000     4.560000000
H     3.133000000     2.530000000     4.404000000
H     2.033000000     3.340000000     3.753000000
O    -6.015000000    -2.452000000    -0.221000000
H    -5.111000000    -2.558000000    -0.516000000
H    -6.113000000    -1.511000000    -0.079000000
O    -0.699000000     0.393000000    -6.250000000
H    -1.280000000     0.914000000    -5.696000000
H     0.165000000     0.492000000    -5.851000000
O    -2.161000000    -5.078000000    -0.131000000
H    -2.635000000    -5.894000000    -0.295000000
H    -1.434000000    -5.094000000    -0.753000000
O    -5.613000000    -4.980000000     2.438000000
H    -4.860000000    -4.466000000     2.147000000
H    -6.013000000    -5.298000000     1.629000000
O    -0.624000000     5.641000000    -0.614000000
H     0.193000000     6.138000000    -0.631000000
H    -0.359000000     4.738000000    -0.788000000
O     0.633000000     4.378000000     2.555000000
H     0.381000000     5.191000000     2.994000000
H    -0.176000000     3.869000000     2.512000000
O     2.060000000    -4.461000000     2.064000000
H     2.320000000    -4.349000000     2.979000000
H     1.188000000    -4.852000000     2.109000000
O     1.696000000    -5.709000000    -0.455000000
H     1.622000000    -6.661000000    -0.398000000
H     1.582000000    -5.405000000     0.445000000
O    -2.410000000     1.902000000    -4.474000000
H    -1.661000000     2.122000000    -3.921000000
H    -2.983000000     2.667000000    -4.416000000
