161
-3056.40984
C    -1.378000000    -0.554000000    -0.009000000
H    -2.431000000    -0.825000000    -0.002000000
C    -0.932000000     0.492000000    -0.809000000
H    -1.632000000     1.041000000    -1.434000000
C     0.382000000     0.887000000    -0.780000000
C     0.981000000     1.926000000    -1.672000000
H     1.247000000     2.778000000    -1.043000000
H     1.893000000     1.636000000    -2.198000000
H     0.217000000     2.210000000    -2.399000000
C     1.274000000     0.199000000     0.087000000
H     2.338000000     0.414000000     0.152000000
C     0.845000000    -0.786000000     0.935000000
H     1.564000000    -1.232000000     1.617000000
C    -0.486000000    -1.109000000     0.926000000
C    -1.109000000    -2.148000000     1.881000000
O    -0.532000000    -2.426000000     2.949000000
O    -2.245000000    -2.511000000     1.795000000
O    -2.264000000     4.438000000    -0.772000000
H    -2.721000000     4.398000000     0.068000000
H    -1.370000000     4.693000000    -0.546000000
O    -3.427000000    -3.883000000    -1.934000000
H    -3.656000000    -4.785000000    -1.711000000
H    -3.121000000    -3.930000000    -2.840000000
O     1.245000000     5.215000000    -2.681000000
H     1.818000000     4.549000000    -3.063000000
H     1.407000000     5.157000000    -1.739000000
O     0.939000000    -1.342000000     4.889000000
H     0.338000000    -1.649000000     5.567000000
H     0.550000000    -1.646000000     4.069000000
O    -5.108000000     3.174000000    -2.801000000
H    -5.706000000     3.771000000    -3.251000000
H    -5.369000000     3.222000000    -1.881000000
O     3.617000000    -1.139000000    -2.247000000
H     2.735000000    -1.510000000    -2.274000000
H     4.152000000    -1.756000000    -2.748000000
O    -4.659000000    -3.851000000     1.544000000
H    -5.110000000    -3.126000000     1.111000000
H    -3.827000000    -3.477000000     1.833000000
O    -0.038000000    -5.090000000     6.071000000
H     0.257000000    -5.908000000     6.473000000
H    -0.773000000    -4.808000000     6.615000000
O     0.230000000    -6.406000000    -0.102000000
H    -0.244000000    -5.608000000     0.131000000
H     0.574000000    -6.234000000    -0.978000000
O     0.406000000     5.381000000     0.048000000
H     0.344000000     6.287000000     0.353000000
H     1.027000000     4.968000000     0.649000000
O    -4.784000000    -4.548000000     4.994000000
H    -4.507000000    -5.062000000     5.753000000
H    -4.048000000    -4.602000000     4.386000000
O     5.937000000    -1.644000000     3.378000000
H     5.712000000    -0.987000000     4.037000000
H     5.095000000    -2.017000000     3.114000000
O    -1.468000000     1.570000000     5.459000000
H    -1.456000000     1.861000000     4.547000000
H    -1.528000000     0.616000000     5.406000000
O     4.531000000     1.274000000    -3.048000000
H     4.077000000     0.441000000    -2.922000000
H     5.399000000     1.028000000    -3.368000000
O    -1.992000000    -4.470000000     4.004000000
H    -1.861000000    -3.961000000     4.804000000
H    -1.854000000    -3.842000000     3.295000000
O     1.994000000     3.867000000     1.697000000
H     1.794000000     2.936000000     1.593000000
H     1.633000000     4.094000000     2.554000000
O    -2.069000000    -1.017000000     4.636000000
H    -1.708000000    -1.414000000     5.428000000
H    -1.448000000    -1.253000000     3.946000000
O    -1.297000000     0.771000000    -4.033000000
H    -0.369000000     0.542000000    -3.980000000
H    -1.308000000     1.728000000    -4.032000000
O    -3.894000000    -0.694000000    -3.127000000
H    -3.353000000     0.048000000    -3.396000000
H    -3.283000000    -1.292000000    -2.696000000
O    -1.354000000     1.513000000     2.293000000
H    -2.300000000     1.370000000     2.245000000
H    -1.023000000     1.210000000     1.448000000
O    -1.684000000    -4.436000000    -0.013000000
H    -2.084000000    -4.101000000    -0.816000000
H    -2.078000000    -3.915000000     0.686000000
O    -4.335000000    -6.530000000     2.083000000
H    -3.719000000    -6.773000000     1.391000000
H    -4.579000000    -5.626000000     1.880000000
O    -0.536000000    -7.403000000     2.296000000
H    -0.484000000    -6.538000000     2.703000000
H     0.104000000    -7.371000000     1.584000000
O     0.951000000    -1.826000000    -2.370000000
H     0.523000000    -1.505000000    -1.576000000
H     0.621000000    -2.718000000    -2.476000000
O     1.460000000     0.423000000    -4.594000000
H     1.698000000     0.031000000    -3.754000000
H     1.701000000    -0.237000000    -5.243000000
O    -6.361000000    -1.896000000     0.219000000
H    -7.031000000    -1.478000000     0.760000000
H    -5.843000000    -1.168000000    -0.124000000
O    -2.543000000     3.560000000    -3.184000000
H    -2.380000000     3.970000000    -2.334000000
H    -3.434000000     3.216000000    -3.117000000
O    -5.256000000     0.426000000    -0.940000000
H    -6.150000000     0.374000000    -1.278000000
H    -4.701000000     0.298000000    -1.710000000
O     3.299000000     3.839000000    -3.766000000
H     3.740000000     3.060000000    -3.427000000
H     2.885000000     3.545000000    -4.578000000
O    -3.181000000     3.904000000     1.712000000
H    -4.031000000     4.340000000     1.653000000
H    -3.383000000     2.973000000     1.618000000
O     4.214000000     6.104000000     1.298000000
H     4.136000000     6.552000000     2.140000000
H     3.562000000     5.404000000     1.338000000
O     7.193000000     1.734000000    -0.719000000
H     6.348000000     1.959000000    -0.329000000
H     7.840000000     2.058000000    -0.093000000
O     2.289000000     1.028000000     5.980000000
H     1.768000000     0.342000000     5.562000000
H     3.003000000     1.195000000     5.364000000
O    -0.280000000     6.892000000    -4.301000000
H     0.365000000     6.393000000    -3.801000000
H    -0.986000000     6.269000000    -4.471000000
O     2.419000000     2.727000000    -6.161000000
H     1.788000000     2.052000000    -5.912000000
H     3.160000000     2.240000000    -6.522000000
O    -2.601000000     5.284000000    -5.024000000
H    -2.551000000     4.622000000    -4.335000000
H    -2.082000000     4.922000000    -5.743000000
O    -3.896000000     1.368000000     1.117000000
H    -4.179000000     0.993000000     0.283000000
H    -4.388000000     0.881000000     1.778000000
O    -2.773000000    -6.966000000    -0.214000000
H    -2.108000000    -7.562000000     0.130000000
H    -2.336000000    -6.115000000    -0.252000000
O     3.120000000    -2.294000000     3.677000000
H     2.764000000    -3.178000000     3.590000000
H     2.532000000    -1.858000000     4.294000000
O     4.464000000     2.572000000    -0.494000000
H     4.604000000     3.333000000    -1.057000000
H     4.428000000     1.830000000    -1.099000000
O     4.005000000     1.277000000     2.022000000
H     4.289000000     1.860000000     1.318000000
H     3.994000000     0.407000000     1.622000000
O    -0.501000000    -1.942000000     6.928000000
H    -0.872000000    -2.784000000     7.191000000
H    -0.986000000    -1.296000000     7.442000000
O     4.557000000     1.067000000     4.609000000
H     4.823000000     1.974000000     4.762000000
H     4.481000000     0.998000000     3.657000000
O     1.305000000    -4.488000000     3.551000000
H     1.133000000    -4.731000000     4.461000000
H     0.738000000    -3.733000000     3.394000000
O     4.620000000    -0.700000000     0.460000000
H     4.371000000    -0.770000000    -0.462000000
H     5.387000000    -1.266000000     0.544000000
O     4.263000000    -4.208000000     0.973000000
H     4.117000000    -3.322000000     1.306000000
H     4.128000000    -4.133000000     0.028000000
O    -4.459000000    -0.889000000     2.714000000
H    -3.971000000    -1.528000000     2.195000000
H    -3.958000000    -0.805000000     3.525000000
O    -2.805000000    -0.682000000    -6.008000000
H    -2.330000000     0.065000000    -5.644000000
H    -3.672000000    -0.334000000    -6.219000000
