161
-3057.61862
C     1.100000000     0.967000000    -0.323000000
H     1.884000000     1.718000000    -0.269000000
C     1.072000000    -0.034000000     0.700000000
H     1.864000000    -0.067000000     1.444000000
C     0.034000000    -0.994000000     0.783000000
C     0.040000000    -1.964000000     1.950000000
H    -0.341000000    -1.402000000     2.805000000
H    -0.505000000    -2.902000000     1.821000000
H     1.087000000    -2.236000000     2.103000000
C    -0.990000000    -0.904000000    -0.115000000
H    -1.828000000    -1.578000000     0.044000000
C    -1.028000000     0.151000000    -1.071000000
H    -1.890000000     0.378000000    -1.693000000
C     0.031000000     1.049000000    -1.229000000
C    -0.125000000     2.275000000    -2.100000000
O    -1.236000000     2.601000000    -2.530000000
O     0.835000000     2.943000000    -2.323000000
O    -0.588000000    -5.809000000     3.202000000
H    -0.725000000    -5.753000000     2.256000000
H     0.336000000    -6.039000000     3.297000000
O    -1.047000000    -2.821000000    -3.589000000
H    -1.137000000    -1.869000000    -3.634000000
H    -1.450000000    -3.138000000    -4.398000000
O    -1.253000000     6.835000000    -5.432000000
H    -0.865000000     6.213000000    -4.817000000
H    -0.503000000     7.256000000    -5.853000000
O     2.325000000    -3.527000000     4.167000000
H     1.410000000    -3.527000000     4.448000000
H     2.338000000    -4.090000000     3.393000000
O    -0.081000000     5.222000000    -3.566000000
H     0.125000000     4.308000000    -3.371000000
H    -0.074000000     5.657000000    -2.713000000
O    -4.558000000     4.491000000    -4.727000000
H    -5.272000000     4.769000000    -5.301000000
H    -3.804000000     5.005000000    -5.016000000
O     2.464000000     0.722000000     3.982000000
H     2.060000000     0.105000000     4.591000000
H     2.770000000     1.441000000     4.536000000
O    -0.822000000     0.830000000     7.048000000
H    -0.337000000     1.349000000     7.690000000
H    -0.921000000     1.413000000     6.295000000
O    -5.506000000    -3.710000000     1.312000000
H    -5.146000000    -3.731000000     2.199000000
H    -6.028000000    -4.509000000     1.246000000
O    -2.655000000    -0.004000000     4.363000000
H    -2.994000000    -0.899000000     4.363000000
H    -2.845000000     0.325000000     5.242000000
O     5.770000000    -3.516000000     2.465000000
H     5.139000000    -3.256000000     3.135000000
H     6.622000000    -3.287000000     2.836000000
O    -5.625000000    -1.104000000     3.219000000
H    -4.879000000    -1.698000000     3.133000000
H    -6.148000000    -1.477000000     3.929000000
O    -4.736000000    -0.189000000    -4.541000000
H    -4.082000000     0.465000000    -4.295000000
H    -5.426000000    -0.096000000    -3.884000000
O     1.007000000     6.373000000     1.338000000
H     0.503000000     6.957000000     0.771000000
H     1.147000000     5.588000000     0.808000000
O     4.064000000     3.389000000    -0.732000000
H     4.273000000     3.905000000    -1.510000000
H     4.916000000     3.133000000    -0.378000000
O     4.614000000    -1.061000000     3.556000000
H     4.773000000    -0.378000000     2.904000000
H     3.699000000    -0.941000000     3.810000000
O     4.308000000     1.220000000     1.815000000
H     4.771000000     2.034000000     2.013000000
H     3.384000000     1.432000000     1.944000000
O    -3.550000000    -2.662000000     2.921000000
H    -3.418000000    -3.610000000     2.936000000
H    -3.237000000    -2.391000000     2.058000000
O     4.293000000    -1.767000000    -3.083000000
H     4.432000000    -0.929000000    -2.642000000
H     3.449000000    -2.074000000    -2.752000000
O    -1.359000000    -5.503000000     5.987000000
H    -0.767000000    -5.740000000     5.274000000
H    -1.754000000    -4.678000000     5.707000000
O    -4.532000000     1.395000000     2.233000000
H    -4.568000000     1.344000000     3.189000000
H    -4.925000000     0.575000000     1.935000000
O     3.274000000     2.014000000    -6.226000000
H     3.397000000     1.112000000    -6.521000000
H     3.221000000     1.949000000    -5.272000000
O    -5.147000000    -3.053000000    -2.096000000
H    -5.288000000    -2.599000000    -2.926000000
H    -5.662000000    -2.556000000    -1.460000000
O    -1.459000000     3.003000000    -5.301000000
H    -1.516000000     3.114000000    -4.352000000
H    -2.369000000     2.945000000    -5.590000000
O     2.147000000    -5.842000000     2.245000000
H     2.542000000    -5.239000000     1.615000000
H     2.131000000    -6.685000000     1.791000000
O    -1.051000000     2.843000000     5.154000000
H    -0.816000000     2.750000000     4.230000000
H    -1.846000000     3.376000000     5.147000000
O     1.188000000    -0.591000000     6.186000000
H     0.418000000    -0.106000000     6.483000000
H     1.305000000    -1.280000000     6.840000000
O    -0.947000000     1.292000000     2.855000000
H    -0.724000000     0.511000000     2.350000000
H    -1.466000000     0.962000000     3.589000000
O     2.966000000     1.428000000    -3.174000000
H     2.161000000     1.862000000    -2.892000000
H     3.559000000     1.513000000    -2.427000000
O     3.012000000     5.092000000    -3.063000000
H     3.085000000     5.608000000    -3.866000000
H     2.193000000     4.607000000    -3.163000000
O     5.437000000     0.263000000    -0.571000000
H     5.486000000    -0.638000000    -0.250000000
H     5.203000000     0.779000000     0.200000000
O     2.070000000    -2.804000000    -1.845000000
H     1.277000000    -2.354000000    -1.554000000
H     2.276000000    -3.410000000    -1.133000000
O    -1.778000000     4.667000000    -0.639000000
H    -1.665000000     3.919000000    -1.225000000
H    -2.399000000     4.362000000     0.022000000
O    -3.691000000     1.918000000    -3.172000000
H    -2.802000000     2.181000000    -2.932000000
H    -4.192000000     2.733000000    -3.162000000
O     2.784000000     7.665000000    -2.019000000
H     2.858000000     6.817000000    -1.582000000
H     3.560000000     7.715000000    -2.578000000
O    -3.364000000    -3.784000000    -0.194000000
H    -4.002000000    -3.863000000     0.515000000
H    -3.875000000    -3.473000000    -0.942000000
O     1.274000000     3.327000000     2.291000000
H     0.891000000     2.465000000     2.128000000
H     1.145000000     3.806000000     1.473000000
O    -4.841000000     4.714000000    -1.965000000
H    -4.933000000     4.897000000    -2.900000000
H    -3.941000000     4.968000000    -1.759000000
O    -1.460000000    -0.155000000    -4.402000000
H    -2.067000000    -0.019000000    -5.129000000
H    -1.597000000     0.602000000    -3.831000000
O    -6.126000000     2.050000000     0.023000000
H    -5.379000000     1.955000000     0.615000000
H    -6.386000000     2.966000000     0.111000000
O     1.492000000     4.462000000    -0.305000000
H     2.446000000     4.436000000    -0.382000000
H     1.179000000     3.901000000    -1.015000000
O     0.270000000     0.986000000    -7.021000000
H     0.532000000     0.065000000    -7.019000000
H     0.166000000     1.208000000    -6.095000000
O     0.893000000     4.350000000    -6.420000000
H     0.111000000     4.081000000    -5.936000000
H     1.214000000     3.543000000    -6.822000000
O     3.363000000    -4.117000000     0.752000000
H     4.121000000    -4.256000000     0.185000000
H     3.602000000    -3.364000000     1.292000000
O    -2.851000000     3.039000000     1.263000000
H    -3.600000000     2.459000000     1.400000000
H    -2.104000000     2.448000000     1.172000000
O    -1.994000000    -5.050000000    -2.410000000
H    -1.590000000    -4.268000000    -2.785000000
H    -2.343000000    -4.758000000    -1.567000000
O    -0.982000000    -5.357000000     0.526000000
H    -1.793000000    -4.851000000     0.583000000
H    -1.019000000    -5.775000000    -0.334000000
O    -3.444000000    -5.591000000     2.978000000
H    -2.567000000    -5.788000000     3.309000000
H    -3.858000000    -6.447000000     2.870000000
