161
-3050.62400
C    -1.206000000     0.184000000     0.836000000
H    -1.947000000     0.230000000     1.630000000
C    -0.202000000    -0.798000000     1.015000000
H    -0.131000000    -1.381000000     1.929000000
C     0.821000000    -0.895000000     0.111000000
C     1.894000000    -1.911000000     0.336000000
H     2.883000000    -1.627000000    -0.030000000
H     1.982000000    -2.226000000     1.378000000
H     1.638000000    -2.855000000    -0.149000000
C     0.851000000    -0.065000000    -0.989000000
H     1.633000000    -0.090000000    -1.744000000
C    -0.019000000     1.002000000    -1.084000000
H     0.116000000     1.680000000    -1.922000000
C    -1.129000000     1.129000000    -0.200000000
C    -2.138000000     2.265000000    -0.326000000
O    -2.416000000     2.705000000    -1.467000000
O    -2.637000000     2.661000000     0.682000000
O    -6.830000000    -0.164000000     2.656000000
H    -6.255000000     0.510000000     2.295000000
H    -7.460000000     0.319000000     3.191000000
O    -6.171000000     0.008000000    -0.327000000
H    -5.743000000     0.573000000     0.316000000
H    -5.551000000    -0.708000000    -0.468000000
O     0.177000000    -5.644000000     4.270000000
H     0.145000000    -5.769000000     3.322000000
H    -0.533000000    -6.190000000     4.608000000
O    -0.928000000     5.678000000    -4.672000000
H    -0.663000000     6.172000000    -3.896000000
H    -0.114000000     5.530000000    -5.152000000
O     0.375000000    -5.268000000    -0.977000000
H     0.327000000    -4.679000000    -1.730000000
H    -0.147000000    -6.028000000    -1.234000000
O    -4.555000000     1.318000000     4.570000000
H    -3.710000000     1.767000000     4.617000000
H    -4.775000000     1.127000000     5.482000000
O     2.615000000     2.980000000     1.526000000
H     2.974000000     3.530000000     2.222000000
H     3.069000000     2.143000000     1.625000000
O    -3.161000000    -3.442000000     4.265000000
H    -2.532000000    -2.731000000     4.386000000
H    -3.724000000    -3.397000000     5.037000000
O    -5.362000000     5.321000000     3.367000000
H    -4.558000000     4.822000000     3.222000000
H    -5.644000000     5.071000000     4.247000000
O     4.609000000     1.167000000     2.543000000
H     5.137000000     0.377000000     2.426000000
H     5.238000000     1.886000000     2.487000000
O     0.760000000    -5.310000000     1.624000000
H     0.611000000    -5.148000000     0.693000000
H     0.893000000    -4.441000000     2.001000000
O     4.482000000    -3.067000000    -1.875000000
H     4.650000000    -2.718000000    -0.999000000
H     5.029000000    -3.850000000    -1.930000000
O    -1.753000000     2.931000000     4.331000000
H    -1.128000000     2.397000000     3.842000000
H    -1.870000000     3.715000000     3.794000000
O    -4.990000000     2.383000000    -5.346000000
H    -5.887000000     2.641000000    -5.134000000
H    -4.628000000     2.072000000    -4.517000000
O     0.690000000     4.338000000    -0.511000000
H     0.931000000     3.739000000     0.196000000
H     1.181000000     4.023000000    -1.269000000
O     4.324000000    -0.984000000    -3.721000000
H     3.398000000    -0.752000000    -3.784000000
H     4.329000000    -1.829000000    -3.272000000
O     1.426000000     3.396000000    -4.525000000
H     1.486000000     3.817000000    -5.383000000
H     0.784000000     2.696000000    -4.647000000
O    -2.863000000    -2.803000000    -1.048000000
H    -2.920000000    -3.328000000    -0.250000000
H    -1.960000000    -2.914000000    -1.345000000
O    -4.643000000     1.214000000     1.568000000
H    -4.696000000     1.236000000     2.523000000
H    -3.828000000     1.672000000     1.362000000
O    -1.850000000     3.333000000    -3.842000000
H    -1.471000000     4.211000000    -3.883000000
H    -2.143000000     3.240000000    -2.936000000
O    -4.631000000     1.959000000    -2.737000000
H    -5.367000000     1.847000000    -2.134000000
H    -4.009000000     2.505000000    -2.256000000
O    -3.292000000     5.012000000    -5.812000000
H    -2.509000000     5.297000000    -5.340000000
H    -3.298000000     4.060000000    -5.714000000
O     1.996000000    -3.949000000    -3.072000000
H     2.314000000    -4.843000000    -3.193000000
H     2.781000000    -3.440000000    -2.871000000
O     4.827000000     0.612000000    -0.346000000
H     4.073000000     1.139000000    -0.082000000
H     4.521000000     0.124000000    -1.111000000
O     6.842000000    -0.290000000     1.347000000
H     7.627000000    -0.576000000     0.881000000
H     6.251000000     0.013000000     0.658000000
O    -3.375000000    -3.906000000     1.369000000
H    -3.177000000    -4.840000000     1.433000000
H    -3.219000000    -3.567000000     2.251000000
O     1.668000000    -0.468000000    -4.065000000
H     1.142000000     0.328000000    -4.146000000
H     1.749000000    -0.794000000    -4.961000000
O    -0.912000000     6.547000000     0.146000000
H    -0.441000000     5.719000000     0.055000000
H    -0.399000000     7.045000000     0.783000000
O     0.455000000    -3.008000000     3.742000000
H     0.456000000    -3.797000000     4.283000000
H    -0.304000000    -2.510000000     4.046000000
O     4.700000000     1.794000000    -3.317000000
H     4.687000000     0.885000000    -3.616000000
H     5.479000000     1.853000000    -2.764000000
O     0.473000000     1.840000000     2.678000000
H     1.140000000     2.383000000     2.258000000
H     0.291000000     1.148000000     2.042000000
O     0.727000000     6.526000000    -2.448000000
H     0.596000000     5.712000000    -1.963000000
H     0.028000000     7.103000000    -2.141000000
O    -4.846000000     5.221000000    -2.597000000
H    -4.044000000     5.212000000    -3.120000000
H    -4.546000000     5.378000000    -1.702000000
O    -0.481000000     1.321000000    -4.872000000
H    -0.933000000     0.483000000    -4.779000000
H    -1.095000000     1.965000000    -4.518000000
O    -3.964000000     6.648000000     0.153000000
H    -3.029000000     6.639000000     0.358000000
H    -4.221000000     5.726000000     0.166000000
O    -2.197000000     5.405000000    -1.909000000
H    -1.761000000     5.918000000    -1.228000000
H    -2.148000000     4.502000000    -1.596000000
O     1.721000000    -7.741000000     0.332000000
H     1.474000000    -6.891000000     0.695000000
H     0.921000000    -8.265000000     0.383000000
O     1.225000000    -1.244000000     6.965000000
H     1.616000000    -1.558000000     6.149000000
H     0.816000000    -0.411000000     6.729000000
O     2.986000000     3.853000000    -2.528000000
H     3.661000000     3.227000000    -2.793000000
H     2.328000000     3.803000000    -3.221000000
O     0.529000000     0.867000000     5.378000000
H     0.697000000     1.733000000     5.749000000
H     0.452000000     1.020000000     4.437000000
O    -1.572000000    -1.447000000     5.144000000
H    -1.429000000    -0.504000000     5.054000000
H    -1.542000000    -1.603000000     6.088000000
O    -4.983000000     4.061000000     0.124000000
H    -5.589000000     3.731000000    -0.538000000
H    -4.424000000     3.312000000     0.333000000
O     5.291000000    -2.759000000     1.852000000
H     5.983000000    -3.412000000     1.956000000
H     5.758000000    -1.938000000     1.695000000
O    -2.179000000     4.737000000     2.308000000
H    -1.726000000     5.429000000     1.826000000
H    -2.289000000     4.032000000     1.670000000
O    -2.272000000     0.117000000    -2.913000000
H    -1.908000000     0.324000000    -2.052000000
H    -2.900000000     0.819000000    -3.083000000
O     4.450000000    -7.150000000     1.500000000
H     4.199000000    -6.227000000     1.516000000
H     3.635000000    -7.617000000     1.315000000
O    -0.316000000    -2.512000000    -3.329000000
H     0.151000000    -1.730000000    -3.624000000
H     0.364000000    -3.069000000    -2.952000000
O    -6.881000000     2.528000000    -1.068000000
H    -7.793000000     2.752000000    -1.253000000
H    -6.878000000     1.573000000    -1.004000000
