161
-3073.08835
C    -1.327000000    -0.151000000     0.518000000
H    -2.311000000    -0.386000000     0.916000000
C    -0.482000000    -1.218000000     0.334000000
H    -0.777000000    -2.228000000     0.606000000
C     0.760000000    -0.924000000    -0.167000000
C     1.745000000    -2.044000000    -0.402000000
H     2.073000000    -2.296000000     0.609000000
H     1.350000000    -2.916000000    -0.928000000
H     2.591000000    -1.637000000    -0.961000000
C     1.162000000     0.426000000    -0.522000000
H     2.093000000     0.683000000    -1.021000000
C     0.289000000     1.443000000    -0.263000000
H     0.485000000     2.445000000    -0.637000000
C    -0.968000000     1.192000000     0.214000000
C    -1.949000000     2.257000000     0.547000000
O    -1.642000000     3.434000000     0.334000000
O    -3.091000000     1.915000000     0.820000000
O    -4.139000000     1.387000000    -3.970000000
H    -4.204000000     1.308000000    -3.018000000
H    -4.987000000     1.739000000    -4.240000000
O     4.755000000     1.096000000    -4.936000000
H     4.155000000     0.863000000    -5.644000000
H     4.257000000     0.928000000    -4.136000000
O     0.238000000     3.113000000    -3.629000000
H    -0.572000000     3.556000000    -3.881000000
H     0.550000000     2.706000000    -4.438000000
O    -2.188000000     5.124000000    -4.485000000
H    -2.350000000     5.055000000    -3.545000000
H    -2.999000000     4.817000000    -4.892000000
O    -3.957000000     1.417000000     6.198000000
H    -4.703000000     1.951000000     6.470000000
H    -3.921000000     1.521000000     5.248000000
O     4.577000000    -0.448000000    -2.462000000
H     4.452000000     0.123000000    -1.703000000
H     5.352000000    -0.966000000    -2.247000000
O    -6.862000000     1.336000000     4.041000000
H    -7.292000000     1.998000000     4.582000000
H    -5.931000000     1.554000000     4.092000000
O    -1.828000000     5.090000000     2.427000000
H    -0.925000000     5.166000000     2.736000000
H    -1.772000000     4.515000000     1.664000000
O    -5.394000000     3.566000000     0.798000000
H    -5.272000000     4.247000000     1.460000000
H    -4.857000000     2.836000000     1.104000000
O     1.951000000    -3.677000000    -4.656000000
H     1.146000000    -3.705000000    -4.140000000
H     2.382000000    -2.867000000    -4.385000000
O     5.602000000    -1.034000000     0.930000000
H     6.134000000    -1.203000000     0.153000000
H     4.945000000    -0.401000000     0.638000000
O    -1.524000000    -5.253000000     1.583000000
H    -2.192000000    -4.631000000     1.294000000
H    -1.177000000    -4.873000000     2.391000000
O     4.231000000     1.435000000     2.857000000
H     4.490000000     2.139000000     3.453000000
H     4.513000000     0.633000000     3.297000000
O     0.167000000    -4.405000000    -2.664000000
H     0.432000000    -5.248000000    -2.297000000
H    -0.748000000    -4.306000000    -2.399000000
O     1.589000000     4.741000000    -1.857000000
H     1.521000000     5.632000000    -2.201000000
H     1.264000000     4.185000000    -2.565000000
O    -1.684000000    -0.507000000     3.426000000
H    -2.365000000    -1.161000000     3.585000000
H    -2.131000000     0.333000000     3.523000000
O     4.609000000     1.344000000    -0.557000000
H     4.124000000     2.140000000    -0.775000000
H     5.116000000     1.577000000     0.221000000
O    -4.695000000     1.231000000    -1.243000000
H    -4.886000000     0.317000000    -1.032000000
H    -4.114000000     1.523000000    -0.540000000
O     0.528000000     5.130000000     0.461000000
H     0.925000000     5.238000000    -0.404000000
H    -0.138000000     4.455000000     0.336000000
O    -6.950000000     2.585000000    -1.246000000
H    -7.077000000     3.055000000    -0.421000000
H    -6.050000000     2.264000000    -1.203000000
O     1.053000000    -0.185000000     4.240000000
H     0.216000000    -0.468000000     3.872000000
H     1.289000000     0.590000000     3.730000000
O     0.715000000     4.193000000     3.558000000
H     0.612000000     3.849000000     4.445000000
H     1.084000000     3.464000000     3.060000000
O    -1.110000000     7.339000000    -1.009000000
H    -1.535000000     6.703000000    -1.585000000
H    -0.694000000     6.808000000    -0.330000000
O     3.002000000     3.646000000     0.166000000
H     2.861000000     4.193000000    -0.606000000
H     2.123000000     3.488000000     0.512000000
O     5.225000000    -3.719000000     0.703000000
H     5.431000000    -2.868000000     1.090000000
H     5.729000000    -4.347000000     1.222000000
O    -4.232000000    -3.691000000     0.181000000
H    -4.980000000    -3.094000000     0.166000000
H    -4.578000000    -4.516000000    -0.160000000
O     1.568000000     1.788000000     2.367000000
H     1.314000000     1.370000000     1.544000000
H     2.523000000     1.732000000     2.379000000
O     4.278000000     3.411000000    -2.775000000
H     3.703000000     4.177000000    -2.775000000
H     4.380000000     3.188000000    -3.700000000
O     2.449000000    -6.477000000    -1.322000000
H     2.520000000    -7.412000000    -1.516000000
H     1.707000000    -6.413000000    -0.722000000
O     7.347000000     1.479000000    -1.764000000
H     8.065000000     1.486000000    -1.131000000
H     6.557000000     1.571000000    -1.231000000
O    -2.395000000     4.993000000    -1.794000000
H    -3.333000000     4.847000000    -1.917000000
H    -2.123000000     4.304000000    -1.188000000
O    -3.613000000    -2.593000000     4.119000000
H    -4.032000000    -2.596000000     3.258000000
H    -4.338000000    -2.510000000     4.738000000
O    -2.938000000     7.638000000     2.217000000
H    -2.116000000     8.037000000     1.932000000
H    -2.702000000     6.739000000     2.446000000
O    -2.561000000    -3.644000000    -2.215000000
H    -3.108000000    -3.534000000    -1.437000000
H    -3.107000000    -3.337000000    -2.938000000
O    -5.540000000    -1.391000000    -1.234000000
H    -5.506000000    -1.866000000    -2.064000000
H    -6.472000000    -1.231000000    -1.087000000
O     3.194000000    -1.584000000     4.403000000
H     3.379000000    -1.307000000     5.301000000
H     2.287000000    -1.316000000     4.252000000
O     2.382000000     6.713000000     2.306000000
H     1.934000000     5.874000000     2.195000000
H     2.908000000     6.810000000     1.512000000
O    -5.420000000    -1.659000000     2.011000000
H    -6.139000000    -1.105000000     2.314000000
H    -5.054000000    -1.189000000     1.262000000
O    -4.813000000     4.525000000    -2.406000000
H    -5.429000000     4.131000000    -3.023000000
H    -5.257000000     4.477000000    -1.560000000
O    -4.156000000     4.519000000     3.288000000
H    -4.415000000     5.186000000     3.923000000
H    -3.268000000     4.766000000     3.029000000
O     4.757000000    -4.947000000    -1.765000000
H     3.973000000    -5.492000000    -1.835000000
H     4.524000000    -4.273000000    -1.126000000
O    -4.099000000     1.794000000     3.385000000
H    -4.013000000     2.745000000     3.316000000
H    -3.816000000     1.466000000     2.531000000
O    -0.350000000     0.408000000    -5.461000000
H    -0.444000000    -0.374000000    -6.005000000
H    -0.673000000     0.141000000    -4.601000000
O     0.494000000    -6.841000000     0.431000000
H     0.511000000    -7.694000000     0.865000000
H    -0.208000000    -6.362000000     0.872000000
O     2.390000000    -1.067000000    -3.890000000
H     1.793000000    -0.826000000    -3.181000000
H     3.262000000    -0.887000000    -3.539000000
O     2.860000000    -4.053000000     3.487000000
H     3.108000000    -3.151000000     3.690000000
H     2.914000000    -4.106000000     2.533000000
O    -1.446000000    -0.519000000    -2.844000000
H    -1.565000000    -1.351000000    -2.388000000
H    -1.524000000     0.144000000    -2.158000000
O     2.707000000    -6.134000000    -4.031000000
H     2.506000000    -5.207000000    -4.159000000
H     2.500000000    -6.300000000    -3.111000000
