161
-3034.57324
C    -1.311000000     0.409000000     0.473000000
H    -2.271000000     0.654000000     0.919000000
C    -0.878000000    -0.848000000     0.246000000
H    -1.695000000    -1.531000000     0.462000000
C     0.445000000    -1.156000000    -0.108000000
C     0.716000000    -2.620000000    -0.392000000
H     1.785000000    -2.814000000    -0.282000000
H     0.072000000    -3.281000000     0.193000000
H     0.469000000    -2.938000000    -1.407000000
C     1.267000000    -0.122000000    -0.383000000
H     2.254000000    -0.348000000    -0.777000000
C     0.821000000     1.187000000    -0.273000000
H     1.488000000     2.038000000    -0.384000000
C    -0.453000000     1.458000000     0.229000000
C    -0.776000000     2.930000000     0.450000000
O    -0.038000000     3.782000000     0.214000000
O    -1.894000000     3.197000000     0.828000000
O    -0.349000000     6.318000000     3.959000000
H     0.286000000     5.873000000     3.398000000
H     0.178000000     6.914000000     4.491000000
O    -3.211000000     3.783000000    -3.330000000
H    -3.799000000     3.691000000    -2.581000000
H    -3.343000000     2.982000000    -3.838000000
O     0.812000000     1.642000000    -4.107000000
H     0.737000000     0.819000000    -3.624000000
H     0.183000000     2.226000000    -3.684000000
O    -1.620000000    -3.083000000     2.905000000
H    -2.557000000    -3.044000000     2.712000000
H    -1.524000000    -3.848000000     3.472000000
O    -3.778000000     7.981000000     2.203000000
H    -3.483000000     7.159000000     1.812000000
H    -3.276000000     8.657000000     1.747000000
O    -0.659000000     6.359000000    -0.632000000
H    -0.216000000     7.156000000    -0.340000000
H    -0.363000000     5.683000000    -0.023000000
O     1.092000000    -6.245000000    -2.618000000
H     0.204000000    -5.888000000    -2.619000000
H     1.020000000    -7.066000000    -2.131000000
O    -4.451000000     2.137000000     0.555000000
H    -4.854000000     2.581000000    -0.191000000
H    -3.578000000     2.524000000     0.621000000
O     3.410000000    -0.694000000    -2.942000000
H     3.376000000     0.205000000    -2.617000000
H     4.301000000    -0.795000000    -3.277000000
O    -2.654000000     3.365000000     6.152000000
H    -2.174000000     2.814000000     6.771000000
H    -2.121000000     3.352000000     5.357000000
O     1.350000000     4.805000000     2.475000000
H     2.132000000     4.255000000     2.517000000
H     1.033000000     4.703000000     1.578000000
O    -3.144000000     5.641000000     0.277000000
H    -2.305000000     5.895000000    -0.109000000
H    -3.146000000     4.685000000     0.238000000
O     4.049000000    -5.808000000    -1.608000000
H     3.335000000    -5.988000000    -0.997000000
H     4.233000000    -4.875000000    -1.495000000
O     2.335000000    -4.680000000    -4.713000000
H     1.749000000    -5.132000000    -4.105000000
H     3.167000000    -5.146000000    -4.635000000
O    -2.927000000    -5.791000000     1.176000000
H    -3.828000000    -5.711000000     1.489000000
H    -2.860000000    -6.695000000     0.867000000
O    -5.185000000    -4.360000000     2.037000000
H    -5.326000000    -4.002000000     2.913000000
H    -6.057000000    -4.625000000     1.743000000
O    -3.509000000    -3.888000000    -1.153000000
H    -3.130000000    -4.280000000    -0.366000000
H    -4.157000000    -3.266000000    -0.822000000
O    -2.539000000     0.374000000     5.116000000
H    -2.469000000     1.292000000     4.852000000
H    -3.470000000     0.248000000     5.298000000
O     2.227000000    -6.677000000     0.330000000
H     1.456000000    -6.291000000     0.745000000
H     1.906000000    -7.487000000    -0.067000000
O     3.756000000     1.831000000    -1.832000000
H     3.302000000     2.568000000    -1.423000000
H     4.358000000     1.516000000    -1.157000000
O    -0.634000000     3.600000000    -2.803000000
H    -1.535000000     3.775000000    -3.077000000
H    -0.691000000     3.484000000    -1.855000000
O     4.692000000     4.647000000     0.277000000
H     4.534000000     4.104000000     1.049000000
H     3.834000000     4.727000000    -0.140000000
O     4.140000000     0.597000000     1.638000000
H     5.020000000     0.613000000     2.014000000
H     3.858000000    -0.314000000     1.727000000
O    -1.582000000     3.048000000     3.516000000
H    -0.640000000     2.896000000     3.447000000
H    -1.837000000     3.366000000     2.650000000
O     3.438000000     3.155000000     2.354000000
H     3.504000000     2.266000000     2.006000000
H     3.669000000     3.068000000     3.279000000
O     2.612000000     6.902000000     0.303000000
H     2.787000000     6.458000000     1.133000000
H     2.009000000     7.609000000     0.533000000
O     0.285000000    -4.844000000    -6.540000000
H    -0.525000000    -4.948000000    -6.040000000
H     0.955000000    -4.676000000    -5.877000000
O     4.602000000    -3.659000000     1.217000000
H     4.380000000    -3.576000000     0.290000000
H     5.431000000    -3.190000000     1.309000000
O    -5.212000000    -2.314000000     0.200000000
H    -5.444000000    -1.530000000     0.698000000
H    -5.234000000    -3.021000000     0.844000000
O     4.652000000    -3.224000000    -1.545000000
H     5.508000000    -3.059000000    -1.939000000
H     4.092000000    -2.527000000    -1.888000000
O    -2.631000000    -1.804000000    -2.598000000
H    -2.623000000    -2.721000000    -2.325000000
H    -3.489000000    -1.480000000    -2.322000000
O    -5.287000000     6.883000000    -0.841000000
H    -4.426000000     6.598000000    -0.535000000
H    -5.108000000     7.369000000    -1.645000000
O     2.440000000    -1.924000000     3.647000000
H     1.585000000    -1.553000000     3.428000000
H     2.399000000    -2.825000000     3.325000000
O    -0.223000000    -1.109000000     3.850000000
H    -0.964000000    -0.632000000     4.223000000
H    -0.616000000    -1.875000000     3.432000000
O     2.367000000     4.246000000    -1.093000000
H     1.485000000     4.147000000    -0.734000000
H     2.228000000     4.446000000    -2.019000000
O    -5.523000000     3.557000000    -1.457000000
H    -6.063000000     4.122000000    -0.904000000
H    -5.951000000     3.579000000    -2.312000000
O     3.960000000     1.837000000    -4.870000000
H     3.248000000     1.371000000    -4.433000000
H     4.032000000     2.665000000    -4.396000000
O    -0.140000000    -6.116000000     1.662000000
H    -0.787000000    -5.683000000     1.106000000
H    -0.622000000    -6.347000000     2.456000000
O    -5.200000000    -0.733000000    -2.314000000
H    -5.931000000    -0.729000000    -2.932000000
H    -5.582000000    -1.042000000    -1.493000000
O    -5.742000000     0.041000000     1.458000000
H    -5.346000000     0.748000000     0.947000000
H    -5.919000000     0.434000000     2.313000000
O     0.588000000     5.913000000    -3.094000000
H     0.423000000     4.976000000    -3.206000000
H     0.224000000     6.118000000    -2.233000000
O     0.917000000     1.836000000     3.309000000
H     1.354000000     2.033000000     2.480000000
H     0.682000000     0.911000000     3.242000000
O     2.765000000    -4.913000000     3.053000000
H     2.054000000    -5.194000000     2.477000000
H     3.470000000    -4.661000000     2.457000000
O    -1.695000000    -5.615000000    -2.413000000
H    -2.097000000    -6.410000000    -2.765000000
H    -2.420000000    -5.142000000    -2.004000000
O     1.974000000    -1.960000000    -5.676000000
H     1.384000000    -1.642000000    -4.993000000
H     1.941000000    -2.913000000    -5.596000000
O     0.053000000    -1.928000000    -3.732000000
H    -0.843000000    -1.756000000    -3.443000000
H     0.483000000    -2.308000000    -2.967000000
O    -5.965000000     2.419000000     2.965000000
H    -5.258000000     2.538000000     2.332000000
H    -6.375000000     3.281000000     3.032000000
O    -3.593000000     1.143000000    -4.240000000
H    -3.204000000     0.376000000    -3.820000000
H    -4.536000000     0.979000000    -4.214000000
