161
-3039.68163
C    -1.416000000    -0.249000000     0.233000000
H    -2.369000000    -0.717000000     0.469000000
C    -0.336000000    -1.163000000     0.229000000
H    -0.464000000    -2.186000000     0.572000000
C     0.999000000    -0.757000000     0.039000000
C     2.025000000    -1.840000000     0.055000000
H     1.846000000    -2.628000000     0.790000000
H     1.950000000    -2.468000000    -0.836000000
H     3.041000000    -1.448000000    -0.016000000
C     1.232000000     0.599000000    -0.207000000
H     2.264000000     0.923000000    -0.313000000
C     0.105000000     1.448000000    -0.359000000
H     0.248000000     2.521000000    -0.459000000
C    -1.213000000     1.063000000    -0.084000000
C    -2.314000000     2.031000000    -0.020000000
O    -2.151000000     3.215000000    -0.329000000
O    -3.444000000     1.659000000     0.241000000
O    -0.885000000    -4.071000000    -1.779000000
H    -0.153000000    -3.918000000    -2.376000000
H    -0.873000000    -5.016000000    -1.623000000
O     1.557000000    -3.040000000     4.136000000
H     1.402000000    -3.488000000     4.968000000
H     2.408000000    -3.367000000     3.843000000
O     4.048000000     6.155000000    -0.795000000
H     3.256000000     5.919000000    -0.312000000
H     4.232000000     5.391000000    -1.341000000
O    -3.027000000    -2.370000000    -1.792000000
H    -2.835000000    -3.064000000    -1.161000000
H    -2.168000000    -2.080000000    -2.098000000
O    -6.300000000     0.725000000     1.316000000
H    -5.729000000     0.369000000     0.636000000
H    -6.445000000    -0.008000000     1.914000000
O     1.521000000     2.317000000    -4.675000000
H     1.964000000     1.714000000    -4.078000000
H     0.599000000     2.063000000    -4.632000000
O    -3.337000000     6.360000000    -1.520000000
H    -3.346000000     7.084000000    -2.146000000
H    -2.619000000     5.799000000    -1.814000000
O    -6.550000000    -2.647000000    -1.244000000
H    -7.281000000    -2.367000000    -1.795000000
H    -5.789000000    -2.195000000    -1.608000000
O    -4.730000000    -0.275000000    -0.747000000
H    -4.047000000    -0.940000000    -0.829000000
H    -4.275000000     0.496000000    -0.410000000
O     4.583000000     3.293000000    -1.384000000
H     4.621000000     2.801000000    -0.564000000
H     5.474000000     3.616000000    -1.512000000
O    -1.260000000     2.333000000    -4.511000000
H    -1.539000000     2.822000000    -5.285000000
H    -1.917000000     1.644000000    -4.413000000
O     6.533000000    -4.597000000    -1.164000000
H     6.118000000    -5.170000000    -1.809000000
H     6.009000000    -4.710000000    -0.371000000
O     2.151000000    -4.261000000    -2.856000000
H     1.878000000    -5.009000000    -3.387000000
H     2.865000000    -4.600000000    -2.315000000
O     1.349000000    -7.533000000     0.248000000
H     1.062000000    -6.798000000     0.790000000
H     1.437000000    -8.263000000     0.862000000
O    -6.609000000     5.621000000     1.354000000
H    -7.006000000     5.901000000     0.529000000
H    -5.667000000     5.691000000     1.202000000
O     7.395000000    -1.988000000    -2.858000000
H     8.313000000    -1.846000000    -2.629000000
H     7.034000000    -2.469000000    -2.113000000
O    -1.115000000    -6.849000000    -1.450000000
H    -0.393000000    -7.142000000    -0.894000000
H    -1.756000000    -6.486000000    -0.839000000
O     3.769000000    -3.958000000     2.676000000
H     4.233000000    -4.762000000     2.443000000
H     4.263000000    -3.262000000     2.243000000
O    -4.526000000    -2.230000000     3.913000000
H    -4.587000000    -1.507000000     4.538000000
H    -3.615000000    -2.219000000     3.622000000
O     3.478000000    -5.824000000    -0.796000000
H     2.784000000    -6.474000000    -0.686000000
H     3.933000000    -5.813000000     0.046000000
O     4.026000000     0.000000000     2.556000000
H     4.378000000     0.180000000     3.428000000
H     4.529000000    -0.753000000     2.245000000
O     2.572000000     4.289000000    -3.380000000
H     2.924000000     3.854000000    -2.604000000
H     2.053000000     3.615000000    -3.819000000
O    -1.288000000     4.634000000    -2.402000000
H    -1.254000000     4.022000000    -3.137000000
H    -1.532000000     4.093000000    -1.651000000
O     2.167000000     5.037000000     0.873000000
H     1.295000000     5.191000000     0.511000000
H     2.063000000     4.266000000     1.430000000
O     4.208000000     3.913000000     2.810000000
H     3.357000000     3.501000000     2.959000000
H     4.566000000     3.454000000     2.049000000
O    -1.859000000    -2.374000000     3.580000000
H    -1.724000000    -3.302000000     3.768000000
H    -0.988000000    -1.985000000     3.657000000
O    -4.119000000     1.784000000     2.869000000
H    -3.829000000     1.749000000     1.958000000
H    -5.005000000     1.423000000     2.853000000
O     0.440000000    -5.644000000     1.896000000
H     0.020000000    -5.540000000     2.750000000
H     0.712000000    -4.759000000     1.654000000
O    -3.963000000     5.008000000     0.762000000
H    -3.615000000     5.693000000     0.192000000
H    -3.521000000     4.209000000     0.474000000
O    -0.820000000    -0.828000000    -2.859000000
H    -0.142000000    -1.366000000    -3.267000000
H    -0.434000000    -0.542000000    -2.031000000
O    -0.348000000     8.069000000    -0.195000000
H    -0.426000000     7.167000000     0.116000000
H    -0.028000000     7.986000000    -1.093000000
O     5.202000000     1.921000000     1.015000000
H     4.703000000     1.249000000     1.478000000
H     6.112000000     1.632000000     1.080000000
O     5.843000000    -2.354000000     1.544000000
H     6.007000000    -2.029000000     2.430000000
H     6.657000000    -2.792000000     1.296000000
O    -6.423000000     4.139000000    -3.025000000
H    -5.630000000     3.851000000    -3.477000000
H    -6.272000000     3.910000000    -2.108000000
O    -5.618000000     3.256000000    -0.533000000
H    -5.284000000     3.974000000     0.004000000
H    -5.014000000     2.532000000    -0.367000000
O    -4.033000000     4.445000000     3.497000000
H    -4.251000000     4.897000000     2.682000000
H    -4.190000000     3.520000000     3.308000000
O    -2.647000000    -0.026000000    -4.646000000
H    -3.463000000    -0.292000000    -4.222000000
H    -1.963000000    -0.278000000    -4.026000000
O    -8.742000000     2.032000000     1.058000000
H    -7.870000000     1.685000000     0.873000000
H    -9.036000000     1.544000000     1.827000000
O     1.084000000    -0.542000000     4.509000000
H     1.502000000    -0.030000000     3.816000000
H     1.248000000    -1.453000000     4.265000000
O     1.188000000    -2.291000000    -4.382000000
H     1.813000000    -2.881000000    -3.962000000
H     1.007000000    -2.699000000    -5.230000000
O     1.555000000     2.796000000     2.271000000
H     1.576000000     1.980000000     1.771000000
H     0.680000000     2.817000000     2.658000000
O    -1.055000000    -5.109000000     4.186000000
H    -1.691000000    -5.533000000     4.762000000
H    -0.345000000    -4.840000000     4.768000000
O     2.683000000    -0.061000000    -3.508000000
H     3.606000000    -0.304000000    -3.445000000
H     2.230000000    -0.885000000    -3.688000000
O    -5.436000000    -0.340000000    -3.617000000
H    -5.190000000    -0.063000000    -2.734000000
H    -5.586000000     0.478000000    -4.091000000
O     0.826000000     6.561000000    -2.750000000
H     1.560000000     5.954000000    -2.850000000
H     0.068000000     5.996000000    -2.598000000
O     4.722000000    -5.733000000    -3.186000000
H     4.436000000    -6.402000000    -3.808000000
H     4.386000000    -6.031000000    -2.341000000
O    -0.971000000     1.837000000     3.240000000
H    -0.927000000     1.145000000     3.900000000
H    -1.907000000     2.006000000     3.131000000
O    -0.509000000     5.236000000     0.852000000
H    -1.027000000     5.522000000     1.604000000
H    -1.065000000     4.596000000     0.407000000
