161
-3028.16946
C    -1.433000000    -0.225000000     0.207000000
H    -2.438000000    -0.555000000     0.456000000
C    -0.492000000    -1.247000000     0.013000000
H    -0.727000000    -2.307000000     0.056000000
C     0.871000000    -0.871000000    -0.188000000
C     1.931000000    -1.922000000    -0.182000000
H     1.572000000    -2.919000000    -0.445000000
H     2.797000000    -1.649000000    -0.790000000
H     2.439000000    -2.069000000     0.774000000
C     1.153000000     0.467000000    -0.342000000
H     2.214000000     0.679000000    -0.447000000
C     0.172000000     1.491000000    -0.166000000
H     0.529000000     2.517000000    -0.209000000
C    -1.148000000     1.143000000     0.105000000
C    -2.219000000     2.198000000     0.304000000
O    -2.053000000     3.359000000    -0.116000000
O    -3.173000000     1.910000000     0.967000000
O     4.192000000    -2.927000000     3.401000000
H     4.118000000    -3.369000000     4.247000000
H     4.735000000    -3.511000000     2.872000000
O    -5.031000000    -0.120000000    -2.587000000
H    -5.815000000    -0.358000000    -3.083000000
H    -4.642000000    -0.958000000    -2.337000000
O    -5.738000000     1.699000000    -0.465000000
H    -5.055000000     1.535000000     0.185000000
H    -5.644000000     0.987000000    -1.097000000
O     1.023000000     2.520000000    -5.658000000
H     1.627000000     1.823000000    -5.912000000
H     0.719000000     2.268000000    -4.786000000
O    -4.623000000     0.259000000     2.377000000
H    -5.122000000    -0.399000000     1.893000000
H    -4.056000000     0.662000000     1.719000000
O    -4.016000000     4.385000000    -2.838000000
H    -3.076000000     4.207000000    -2.807000000
H    -4.289000000     4.394000000    -1.920000000
O    -2.651000000     0.475000000    -4.122000000
H    -3.393000000     0.318000000    -3.537000000
H    -3.040000000     0.865000000    -4.904000000
O     1.339000000    -6.470000000    -3.740000000
H     0.650000000    -5.983000000    -3.288000000
H     2.050000000    -5.837000000    -3.846000000
O    -0.252000000     1.814000000    -3.253000000
H    -1.066000000     1.398000000    -3.537000000
H    -0.055000000     1.404000000    -2.410000000
O     5.975000000    -4.196000000    -2.090000000
H     5.284000000    -4.264000000    -1.432000000
H     5.547000000    -4.433000000    -2.913000000
O    -4.542000000    -2.748000000    -2.310000000
H    -5.392000000    -3.153000000    -2.481000000
H    -3.956000000    -3.485000000    -2.136000000
O    -0.837000000    -5.359000000    -2.713000000
H    -0.756000000    -6.075000000    -2.083000000
H    -1.552000000    -4.821000000    -2.373000000
O    -2.757000000     6.271000000     2.733000000
H    -2.331000000     7.101000000     2.947000000
H    -3.588000000     6.525000000     2.331000000
O    -2.542000000    -5.229000000     0.526000000
H    -3.167000000    -5.633000000     1.129000000
H    -1.821000000    -4.942000000     1.086000000
O     4.161000000     2.135000000    -3.720000000
H     3.754000000     1.364000000    -4.115000000
H     4.542000000     2.609000000    -4.459000000
O     4.771000000    -0.356000000     1.479000000
H     4.487000000    -1.168000000     1.899000000
H     5.214000000    -0.642000000     0.680000000
O    -0.020000000    -6.719000000    -0.641000000
H    -0.687000000    -6.621000000     0.039000000
H     0.788000000    -6.416000000    -0.228000000
O     3.028000000     1.870000000     2.445000000
H     2.763000000     2.317000000     1.641000000
H     3.700000000     1.250000000     2.163000000
O    -1.225000000     4.285000000    -2.260000000
H    -1.529000000     3.868000000    -1.454000000
H    -0.623000000     3.648000000    -2.647000000
O    -6.829000000     2.972000000     3.505000000
H    -6.982000000     3.693000000     4.116000000
H    -5.893000000     3.018000000     3.309000000
O    -0.455000000    -4.375000000     2.534000000
H    -0.371000000    -4.877000000     3.344000000
H     0.133000000    -3.629000000     2.652000000
O    -4.615000000     6.721000000     0.664000000
H    -5.134000000     7.331000000     0.139000000
H    -4.834000000     5.857000000     0.315000000
O    -2.854000000    -1.248000000     3.848000000
H    -3.122000000    -2.162000000     3.753000000
H    -3.513000000    -0.754000000     3.360000000
O    -3.768000000    -2.870000000     1.148000000
H    -3.435000000    -3.219000000     0.322000000
H    -4.304000000    -3.577000000     1.508000000
O     1.930000000    -6.122000000     1.256000000
H     1.716000000    -5.509000000     1.960000000
H     2.495000000    -6.774000000     1.670000000
O    -0.867000000     4.723000000     1.678000000
H    -1.544000000     5.272000000     2.072000000
H    -1.288000000     4.337000000     0.910000000
O    -3.472000000     1.806000000     5.090000000
H    -2.867000000     2.486000000     4.793000000
H    -3.916000000     1.516000000     4.294000000
O    -6.153000000    -1.418000000     0.574000000
H    -6.430000000    -1.816000000    -0.251000000
H    -5.363000000    -1.899000000     0.819000000
O    -1.174000000    -1.831000000    -3.340000000
H    -1.490000000    -0.982000000    -3.651000000
H    -1.212000000    -1.765000000    -2.386000000
O     3.310000000     3.323000000     0.146000000
H     4.185000000     3.100000000     0.464000000
H     3.429000000     3.479000000    -0.791000000
O    -3.732000000    -5.405000000    -1.992000000
H    -3.299000000    -5.469000000    -1.141000000
H    -4.454000000    -6.031000000    -1.942000000
O     1.823000000     0.106000000     4.921000000
H     1.427000000     0.667000000     5.588000000
H     1.626000000     0.543000000     4.092000000
O     2.918000000     4.468000000    -2.806000000
H     3.313000000     5.188000000    -3.299000000
H     3.176000000     3.680000000    -3.284000000
O    -4.997000000     4.236000000    -0.397000000
H    -5.490000000     3.555000000    -0.855000000
H    -4.153000000     3.829000000    -0.200000000
O    -4.386000000     3.712000000     2.718000000
H    -3.863000000     3.233000000     2.076000000
H    -4.049000000     4.608000000     2.680000000
O     0.791000000     6.351000000    -1.853000000
H    -0.044000000     5.884000000    -1.893000000
H     1.453000000     5.661000000    -1.897000000
O    -7.861000000     3.559000000     0.317000000
H    -7.152000000     2.917000000     0.321000000
H    -8.523000000     3.189000000     0.901000000
O     1.450000000    -2.638000000     3.945000000
H     1.478000000    -1.724000000     4.227000000
H     2.275000000    -2.771000000     3.479000000
O     1.554000000    -2.469000000    -4.374000000
H     0.662000000    -2.206000000    -4.151000000
H     1.672000000    -3.312000000    -3.936000000
O    -0.470000000     0.564000000     3.131000000
H    -0.551000000     0.335000000     2.205000000
H    -1.164000000     0.066000000     3.563000000
O     6.760000000     1.285000000    -2.536000000
H     5.868000000     1.626000000    -2.470000000
H     6.759000000     0.769000000    -3.343000000
O     3.198000000    -0.155000000    -4.927000000
H     4.058000000    -0.573000000    -4.883000000
H     2.606000000    -0.781000000    -4.511000000
O     3.870000000    -4.543000000    -0.178000000
H     4.574000000    -4.560000000     0.470000000
H     3.066000000    -4.533000000     0.342000000
O    -2.520000000     6.849000000    -1.227000000
H    -3.246000000     6.936000000    -0.610000000
H    -2.307000000     5.916000000    -1.215000000
O     6.520000000    -1.999000000    -0.530000000
H     6.667000000    -2.346000000     0.350000000
H     6.324000000    -2.771000000    -1.062000000
O     5.686000000    -4.510000000     1.831000000
H     5.727000000    -5.425000000     1.551000000
H     6.229000000    -4.476000000     2.618000000
O    -1.431000000     3.026000000     3.798000000
H    -0.954000000     2.235000000     3.548000000
H    -1.290000000     3.631000000     3.070000000
O     1.845000000     5.175000000     1.120000000
H     2.296000000     4.378000000     0.840000000
H     0.993000000     4.870000000     1.432000000
