161
-3039.00179
C    -1.381000000    -0.440000000    -0.409000000
H    -2.345000000    -0.919000000    -0.559000000
C    -0.223000000    -1.236000000    -0.513000000
H    -0.295000000    -2.284000000    -0.794000000
C     1.043000000    -0.690000000    -0.211000000
C     2.261000000    -1.466000000    -0.244000000
H     2.680000000    -1.521000000    -1.250000000
H     3.024000000    -1.202000000     0.493000000
H     2.110000000    -2.476000000     0.143000000
C     1.122000000     0.655000000     0.211000000
H     2.053000000     1.201000000     0.334000000
C    -0.051000000     1.365000000     0.392000000
H     0.003000000     2.405000000     0.706000000
C    -1.316000000     0.868000000     0.132000000
C    -2.557000000     1.726000000     0.427000000
O    -2.489000000     2.849000000     0.887000000
O    -3.643000000     1.169000000     0.261000000
O     3.599000000     3.781000000     4.668000000
H     2.980000000     3.480000000     4.003000000
H     4.111000000     4.459000000     4.228000000
O     5.325000000    -3.139000000     3.372000000
H     4.909000000    -3.692000000     2.711000000
H     4.854000000    -3.336000000     4.181000000
O    -3.646000000    -1.413000000    -3.605000000
H    -4.371000000    -1.580000000    -4.208000000
H    -3.456000000    -2.267000000    -3.217000000
O    -4.693000000     0.741000000    -2.138000000
H    -4.276000000     1.027000000    -1.325000000
H    -4.205000000    -0.042000000    -2.394000000
O    -5.602000000    -0.829000000     0.370000000
H    -6.220000000    -0.606000000    -0.326000000
H    -4.988000000    -0.095000000     0.390000000
O    -3.052000000     3.303000000    -3.052000000
H    -3.604000000     3.719000000    -2.390000000
H    -3.127000000     2.366000000    -2.872000000
O    -6.801000000     2.379000000    -3.070000000
H    -7.467000000     1.971000000    -3.623000000
H    -6.231000000     1.655000000    -2.808000000
O    -2.784000000     0.329000000    -5.449000000
H    -3.053000000    -0.314000000    -4.793000000
H    -3.556000000     0.879000000    -5.577000000
O    -0.163000000    -5.647000000    -4.081000000
H    -0.455000000    -5.231000000    -3.269000000
H     0.465000000    -6.311000000    -3.797000000
O     4.400000000    -5.046000000    -2.271000000
H     3.604000000    -5.419000000    -1.892000000
H     4.370000000    -4.121000000    -2.027000000
O    -3.932000000    -4.008000000    -2.474000000
H    -4.661000000    -3.953000000    -3.092000000
H    -3.534000000    -4.862000000    -2.649000000
O    -0.239000000    -5.519000000    -1.280000000
H     0.581000000    -5.821000000    -0.888000000
H    -0.780000000    -5.261000000    -0.534000000
O    -3.195000000     7.137000000     2.532000000
H    -3.546000000     7.054000000     1.645000000
H    -3.862000000     7.633000000     3.007000000
O    -6.455000000     4.338000000     1.794000000
H    -6.749000000     5.249000000     1.803000000
H    -6.833000000     3.972000000     0.994000000
O     7.246000000    -2.196000000    -0.637000000
H     8.133000000    -1.839000000    -0.601000000
H     7.358000000    -3.132000000    -0.466000000
O    -1.827000000    -4.725000000     0.710000000
H    -2.330000000    -3.939000000     0.921000000
H    -1.495000000    -5.031000000     1.554000000
O     2.600000000     0.828000000     3.896000000
H     3.487000000     0.845000000     4.256000000
H     2.059000000     1.230000000     4.575000000
O     2.350000000     3.249000000     2.341000000
H     2.591000000     3.141000000     1.421000000
H     2.619000000     2.430000000     2.757000000
O     4.825000000    -2.488000000    -1.922000000
H     4.684000000    -1.764000000    -2.532000000
H     5.631000000    -2.258000000    -1.460000000
O    -1.006000000     5.216000000     0.089000000
H    -1.335000000     5.904000000     0.667000000
H    -1.662000000     4.521000000     0.146000000
O    -6.649000000     0.850000000     3.485000000
H    -7.294000000     1.515000000     3.727000000
H    -6.008000000     1.322000000     2.953000000
O    -4.873000000     6.815000000    -0.090000000
H    -4.569000000     5.910000000    -0.153000000
H    -5.584000000     6.873000000    -0.729000000
O    -3.278000000    -1.668000000     2.476000000
H    -3.313000000    -1.040000000     3.197000000
H    -4.000000000    -1.413000000     1.902000000
O    -4.844000000    -3.892000000     0.087000000
H    -4.372000000    -3.912000000    -0.745000000
H    -5.127000000    -2.983000000     0.180000000
O     2.008000000    -4.462000000     1.711000000
H     1.994000000    -3.685000000     2.270000000
H     1.608000000    -5.148000000     2.246000000
O    -1.265000000     4.701000000     2.936000000
H    -2.183000000     4.967000000     2.980000000
H    -1.277000000     3.874000000     2.455000000
O    -4.297000000     0.109000000     4.968000000
H    -3.610000000     0.700000000     4.660000000
H    -5.112000000     0.514000000     4.672000000
O     6.483000000    -0.674000000     2.594000000
H     6.245000000    -0.390000000     1.711000000
H     6.039000000    -1.515000000     2.702000000
O     0.273000000    -4.061000000     4.435000000
H     0.823000000    -4.603000000     5.001000000
H     0.834000000    -3.327000000     4.187000000
O     3.739000000     3.277000000    -0.116000000
H     3.313000000     2.577000000    -0.611000000
H     3.758000000     4.020000000    -0.720000000
O     5.762000000     2.246000000    -2.922000000
H     5.517000000     2.621000000    -2.076000000
H     5.779000000     2.993000000    -3.520000000
O     5.094000000     0.629000000     4.659000000
H     5.017000000    -0.228000000     5.079000000
H     5.488000000     0.442000000     3.806000000
O    -3.624000000     4.191000000     5.449000000
H    -3.582000000     5.147000000     5.449000000
H    -3.642000000     3.952000000     4.522000000
O    -4.616000000     4.126000000    -0.553000000
H    -5.499000000     3.770000000    -0.649000000
H    -4.134000000     3.448000000    -0.080000000
O    -3.992000000     3.608000000     2.871000000
H    -3.468000000     3.338000000     2.117000000
H    -4.773000000     4.008000000     2.490000000
O     1.692000000     6.251000000    -0.467000000
H     0.962000000     5.633000000    -0.477000000
H     2.196000000     6.041000000    -1.253000000
O    -7.495000000     3.038000000    -0.537000000
H    -7.383000000     2.656000000    -1.408000000
H    -7.979000000     2.376000000    -0.045000000
O     2.102000000    -2.184000000     3.542000000
H     1.241000000    -1.968000000     3.183000000
H     2.507000000    -1.336000000     3.722000000
O     5.946000000     0.163000000     0.116000000
H     6.333000000    -0.652000000    -0.203000000
H     5.302000000     0.400000000    -0.551000000
O     0.853000000    -1.471000000    -4.881000000
H     0.194000000    -1.804000000    -5.490000000
H     1.058000000    -2.217000000    -4.317000000
O     6.667000000     2.010000000     1.891000000
H     6.263000000     1.498000000     1.191000000
H     7.498000000     1.567000000     2.062000000
O    -0.256000000    -1.158000000     2.637000000
H    -1.202000000    -1.192000000     2.497000000
H     0.091000000    -0.767000000     1.835000000
O     3.837000000     0.811000000    -1.567000000
H     2.906000000     0.587000000    -1.569000000
H     4.069000000     0.877000000    -2.493000000
O     3.257000000     0.493000000    -4.353000000
H     3.478000000     0.614000000    -5.277000000
H     2.319000000     0.299000000    -4.355000000
O     1.894000000    -6.785000000    -0.485000000
H     2.046000000    -7.638000000    -0.893000000
H     2.196000000    -6.893000000     0.417000000
O     4.589000000    -4.165000000     0.767000000
H     4.437000000    -3.511000000     0.085000000
H     3.745000000    -4.606000000     0.868000000
O    -2.129000000     1.179000000     3.541000000
H    -1.297000000     1.650000000     3.503000000
H    -2.537000000     1.344000000     2.691000000
O     1.257000000     5.834000000     3.243000000
H     1.785000000     5.154000000     2.825000000
H     0.352000000     5.578000000     3.066000000
