161
-3062.22929
C    -1.189000000     0.193000000    -0.874000000
H    -1.940000000     0.433000000    -1.623000000
C     0.026000000     0.917000000    -0.952000000
H     0.177000000     1.661000000    -1.730000000
C     1.031000000     0.657000000    -0.061000000
C     2.336000000     1.334000000    -0.158000000
H     2.816000000     0.957000000    -1.064000000
H     2.216000000     2.417000000    -0.229000000
H     2.959000000     0.935000000     0.645000000
C     0.907000000    -0.337000000     0.864000000
H     1.744000000    -0.605000000     1.503000000
C    -0.269000000    -1.036000000     0.950000000
H    -0.325000000    -1.865000000     1.650000000
C    -1.377000000    -0.764000000     0.120000000
C    -2.658000000    -1.454000000     0.261000000
O    -2.810000000    -2.429000000     0.991000000
O    -3.644000000    -1.016000000    -0.288000000
O    -0.132000000    -1.247000000    -6.126000000
H    -0.872000000    -1.034000000    -5.557000000
H    -0.309000000    -2.138000000    -6.425000000
O    -7.246000000    -1.419000000    -1.922000000
H    -7.575000000    -2.180000000    -1.444000000
H    -7.847000000    -1.322000000    -2.661000000
O     3.893000000    -2.079000000     3.290000000
H     4.562000000    -1.547000000     2.859000000
H     3.660000000    -2.743000000     2.641000000
O    -5.487000000     1.909000000    -3.493000000
H    -6.338000000     1.676000000    -3.864000000
H    -5.509000000     1.557000000    -2.603000000
O    -4.371000000    -1.909000000    -2.644000000
H    -5.298000000    -1.821000000    -2.419000000
H    -3.906000000    -1.641000000    -1.852000000
O    -1.130000000    -5.226000000     4.544000000
H    -0.702000000    -4.395000000     4.335000000
H    -1.981000000    -4.973000000     4.901000000
O    -0.985000000    -3.055000000    -2.557000000
H    -0.194000000    -2.520000000    -2.484000000
H    -1.317000000    -3.113000000    -1.661000000
O    -1.360000000     4.864000000     1.869000000
H    -1.338000000     4.299000000     2.641000000
H    -0.473000000     5.218000000     1.805000000
O    -1.264000000    -3.727000000    -5.090000000
H    -0.822000000    -4.576000000    -5.100000000
H    -1.015000000    -3.337000000    -4.252000000
O    -0.514000000     3.512000000    -5.729000000
H    -1.264000000     3.366000000    -5.152000000
H    -0.871000000     4.009000000    -6.464000000
O    -3.096000000     3.213000000    -2.097000000
H    -3.740000000     2.547000000    -1.857000000
H    -2.926000000     3.058000000    -3.026000000
O    -3.502000000    -5.214000000    -3.058000000
H    -3.833000000    -4.809000000    -2.257000000
H    -3.182000000    -4.480000000    -3.583000000
O    -0.267000000    -6.663000000     2.397000000
H     0.271000000    -5.919000000     2.126000000
H    -0.815000000    -6.318000000     3.102000000
O     3.985000000    -2.682000000    -1.451000000
H     4.084000000    -3.344000000    -2.136000000
H     4.784000000    -2.158000000    -1.508000000
O     5.067000000     2.490000000    -2.804000000
H     4.641000000     3.036000000    -3.464000000
H     4.802000000     1.597000000    -3.024000000
O     1.789000000    -0.635000000     4.321000000
H     2.649000000    -0.868000000     3.971000000
H     1.969000000    -0.317000000     5.206000000
O    -1.224000000     3.029000000     4.040000000
H    -1.568000000     2.783000000     4.898000000
H    -1.504000000     2.322000000     3.458000000
O    -2.819000000    -0.862000000    -4.639000000
H    -3.029000000    -1.507000000    -3.963000000
H    -3.410000000    -1.071000000    -5.362000000
O    -6.298000000    -1.024000000     0.566000000
H    -5.385000000    -1.006000000     0.280000000
H    -6.803000000    -1.021000000    -0.248000000
O     5.225000000     1.053000000     3.769000000
H     4.687000000     1.234000000     2.998000000
H     4.674000000     1.305000000     4.510000000
O     3.707000000     5.511000000     0.686000000
H     4.507000000     5.963000000     0.956000000
H     3.526000000     5.849000000    -0.191000000
O    -4.205000000    -4.126000000    -0.643000000
H    -3.871000000    -3.346000000    -0.201000000
H    -4.798000000    -4.526000000    -0.006000000
O     1.702000000    -1.946000000    -2.412000000
H     1.469000000    -1.123000000    -1.982000000
H     2.495000000    -2.236000000    -1.961000000
O    -6.717000000    -2.057000000     3.724000000
H    -5.811000000    -1.884000000     3.981000000
H    -6.675000000    -2.194000000     2.778000000
O    -6.225000000     1.531000000     1.688000000
H    -6.522000000     0.622000000     1.667000000
H    -7.031000000     2.047000000     1.695000000
O     3.531000000    -3.691000000     1.072000000
H     4.291000000    -4.271000000     1.037000000
H     3.551000000    -3.218000000     0.240000000
O     1.027000000     6.066000000     1.742000000
H     1.174000000     6.472000000     0.888000000
H     1.901000000     5.815000000     2.041000000
O    -4.116000000    -0.836000000     3.212000000
H    -3.498000000    -0.108000000     3.287000000
H    -4.405000000    -0.812000000     2.300000000
O    -4.368000000    -6.538000000     3.569000000
H    -3.724000000    -5.833000000     3.635000000
H    -4.350000000    -6.960000000     4.428000000
O     6.979000000     2.208000000     1.029000000
H     6.753000000     1.309000000     1.266000000
H     6.160000000     2.584000000     0.706000000
O     3.259000000     5.133000000     3.518000000
H     3.525000000     4.397000000     2.967000000
H     2.796000000     4.729000000     4.251000000
O     4.399000000    -0.089000000    -3.625000000
H     3.779000000    -0.469000000    -4.248000000
H     5.130000000    -0.706000000    -3.608000000
O     2.300000000    -1.633000000    -5.253000000
H     2.106000000    -1.918000000    -4.360000000
H     1.485000000    -1.235000000    -5.559000000
O     7.197000000     3.772000000    -1.722000000
H     7.168000000     3.389000000    -0.845000000
H     6.438000000     3.400000000    -2.171000000
O     2.231000000     5.828000000    -2.076000000
H     1.318000000     5.568000000    -1.953000000
H     2.303000000     6.012000000    -3.012000000
O     4.755000000     3.179000000    -0.090000000
H     4.362000000     4.048000000    -0.018000000
H     4.608000000     2.925000000    -1.002000000
O    -3.052000000     1.898000000    -4.676000000
H    -2.811000000     0.971000000    -4.671000000
H    -3.951000000     1.913000000    -4.348000000
O    -3.627000000    -3.628000000     3.349000000
H    -3.653000000    -2.710000000     3.620000000
H    -3.419000000    -3.596000000     2.415000000
O     1.007000000    -4.351000000     1.889000000
H     1.964000000    -4.345000000     1.864000000
H     0.785000000    -3.874000000     2.689000000
O    -1.803000000     5.450000000    -0.748000000
H    -1.758000000     5.149000000     0.159000000
H    -2.020000000     4.664000000    -1.250000000
O    -1.091000000    -0.213000000     5.895000000
H    -1.512000000    -1.073000000     5.905000000
H    -0.297000000    -0.340000000     5.377000000
O    -2.550000000     1.341000000     2.365000000
H    -2.931000000     2.175000000     2.090000000
H    -2.086000000     1.023000000     1.590000000
O    -1.892000000    -6.596000000    -1.555000000
H    -1.722000000    -6.113000000    -0.746000000
H    -2.242000000    -5.940000000    -2.157000000
O     6.260000000    -0.931000000     1.696000000
H     6.403000000    -0.909000000     0.749000000
H     6.970000000    -1.477000000     2.033000000
O    -4.770000000     1.524000000    -0.707000000
H    -5.255000000     1.701000000     0.100000000
H    -4.358000000     0.674000000    -0.557000000
O     0.596000000    -2.881000000     3.989000000
H     1.101000000    -2.088000000     3.812000000
H     0.691000000    -3.021000000     4.931000000
O    -1.087000000    -4.138000000    -0.165000000
H    -1.681000000    -3.474000000     0.183000000
H    -0.339000000    -4.127000000     0.432000000
O     6.714000000     0.103000000    -1.064000000
H     7.519000000     0.616000000    -1.000000000
H     6.773000000    -0.331000000    -1.915000000
