161
-3062.30288
C    -1.341000000     0.430000000    -0.185000000
H    -2.311000000     0.911000000    -0.280000000
C    -0.344000000     1.217000000     0.192000000
H    -0.542000000     2.272000000     0.365000000
C     0.879000000     0.757000000     0.162000000
C     2.075000000     1.658000000     0.497000000
H     2.950000000     1.362000000    -0.085000000
H     1.838000000     2.723000000     0.543000000
H     2.286000000     1.550000000     1.563000000
C     1.169000000    -0.622000000     0.018000000
H     2.171000000    -1.041000000     0.064000000
C     0.131000000    -1.512000000    -0.173000000
H     0.211000000    -2.596000000    -0.186000000
C    -1.177000000    -0.959000000    -0.278000000
C    -2.319000000    -1.831000000    -0.660000000
O    -2.367000000    -3.037000000    -0.480000000
O    -3.304000000    -1.277000000    -1.079000000
O    -4.925000000    -2.956000000     2.377000000
H    -4.186000000    -2.818000000     2.969000000
H    -4.548000000    -3.411000000     1.624000000
O    -0.716000000    -5.241000000     0.759000000
H     0.204000000    -5.477000000     0.639000000
H    -1.055000000    -5.136000000    -0.130000000
O     0.404000000    -5.960000000    -3.687000000
H     0.111000000    -5.896000000    -4.596000000
H    -0.354000000    -5.687000000    -3.171000000
O     4.457000000     1.788000000     4.325000000
H     4.955000000     1.646000000     3.520000000
H     3.913000000     2.553000000     4.139000000
O    -5.622000000    -1.015000000    -4.442000000
H    -5.310000000    -1.530000000    -3.697000000
H    -6.552000000    -0.878000000    -4.265000000
O     4.666000000     1.797000000    -2.755000000
H     5.043000000     1.445000000    -1.949000000
H     4.446000000     2.704000000    -2.540000000
O     5.849000000     2.558000000     1.839000000
H     5.207000000     3.191000000     1.518000000
H     6.229000000     2.974000000     2.612000000
O    -3.238000000    -3.822000000     4.649000000
H    -2.798000000    -3.891000000     3.802000000
H    -3.679000000    -4.665000000     4.759000000
O     3.330000000     4.579000000    -1.875000000
H     3.362000000     4.632000000    -0.920000000
H     2.481000000     4.956000000    -2.108000000
O    -6.124000000     3.044000000    -0.564000000
H    -6.888000000     2.526000000    -0.814000000
H    -6.148000000     3.803000000    -1.146000000
O     5.414000000    -1.596000000     1.165000000
H     5.509000000    -0.929000000     0.486000000
H     4.761000000    -1.235000000     1.765000000
O     2.745000000     6.664000000     3.143000000
H     1.886000000     6.247000000     3.065000000
H     2.639000000     7.512000000     2.711000000
O     6.110000000    -3.074000000    -2.108000000
H     5.302000000    -2.979000000    -2.612000000
H     5.949000000    -2.584000000    -1.302000000
O    -2.525000000     3.445000000    -2.613000000
H    -3.003000000     2.666000000    -2.328000000
H    -1.619000000     3.149000000    -2.703000000
O     3.051000000    -4.700000000     0.026000000
H     2.663000000    -5.470000000    -0.391000000
H     3.434000000    -4.204000000    -0.698000000
O    -4.623000000     1.601000000    -4.874000000
H    -4.311000000     1.933000000    -4.032000000
H    -4.666000000     0.652000000    -4.757000000
O     0.207000000     4.774000000     2.713000000
H    -0.671000000     4.396000000     2.763000000
H     0.060000000     5.694000000     2.493000000
O    -6.687000000     1.416000000     1.704000000
H    -6.087000000     0.735000000     1.399000000
H    -6.562000000     2.139000000     1.089000000
O    -4.127000000     1.224000000    -1.996000000
H    -4.616000000     1.570000000    -1.249000000
H    -3.882000000     0.337000000    -1.732000000
O    -1.599000000    -4.863000000    -2.064000000
H    -2.314000000    -4.830000000    -2.699000000
H    -1.860000000    -4.249000000    -1.377000000
O    -6.596000000    -5.228000000    -1.837000000
H    -6.360000000    -4.302000000    -1.785000000
H    -5.757000000    -5.690000000    -1.819000000
O    -3.987000000    -5.029000000    -3.420000000
H    -3.908000000    -5.794000000    -2.850000000
H    -4.270000000    -5.386000000    -4.262000000
O     1.964000000    -4.440000000     2.844000000
H     1.552000000    -3.577000000     2.892000000
H     2.543000000    -4.386000000     2.084000000
O     1.844000000    -6.680000000    -1.239000000
H     1.616000000    -6.183000000    -2.025000000
H     1.420000000    -7.529000000    -1.361000000
O     5.748000000     0.739000000    -0.492000000
H     6.688000000     0.579000000    -0.577000000
H     5.684000000     1.462000000     0.133000000
O    -3.761000000     3.753000000     0.546000000
H    -4.655000000     3.677000000     0.212000000
H    -3.246000000     4.033000000    -0.210000000
O     0.524000000     0.566000000    -3.704000000
H    -0.123000000     0.777000000    -4.377000000
H     1.360000000     0.842000000    -4.080000000
O     5.715000000    -4.694000000     0.879000000
H     4.779000000    -4.540000000     0.754000000
H     6.008000000    -3.960000000     1.419000000
O     0.330000000     2.749000000    -2.304000000
H     0.604000000     1.935000000    -2.726000000
H     0.660000000     2.678000000    -1.408000000
O     1.042000000    -1.851000000     3.611000000
H     0.468000000    -1.153000000     3.296000000
H     0.531000000    -2.293000000     4.288000000
O    -4.074000000    -5.299000000     0.283000000
H    -3.469000000    -5.750000000     0.871000000
H    -3.629000000    -4.481000000     0.063000000
O     0.676000000     5.421000000    -2.506000000
H     0.650000000     4.469000000    -2.592000000
H    -0.133000000     5.722000000    -2.920000000
O    -2.636000000    -2.985000000    -5.815000000
H    -2.262000000    -2.932000000    -4.935000000
H    -2.879000000    -2.084000000    -6.027000000
O     3.346000000     5.250000000     0.797000000
H     3.391000000     5.403000000     1.741000000
H     4.124000000     5.684000000     0.447000000
O     2.599000000     3.732000000     3.584000000
H     1.731000000     3.955000000     3.247000000
H     2.760000000     4.374000000     4.275000000
O    -2.264000000     3.300000000     2.833000000
H    -2.862000000     3.007000000     3.520000000
H    -2.803000000     3.334000000     2.043000000
O    -1.775000000    -3.286000000     2.461000000
H    -1.429000000    -2.429000000     2.211000000
H    -1.351000000    -3.900000000     1.861000000
O    -3.610000000     0.319000000     3.602000000
H    -4.237000000    -0.342000000     3.896000000
H    -3.981000000     1.150000000     3.898000000
O    -3.777000000    -7.336000000    -1.302000000
H    -3.076000000    -7.848000000    -0.899000000
H    -3.982000000    -6.661000000    -0.655000000
O    -0.953000000    -0.226000000     3.024000000
H    -1.845000000     0.021000000     3.268000000
H    -0.812000000     0.192000000     2.174000000
O    -2.427000000    -6.945000000     2.095000000
H    -1.585000000    -6.635000000     1.761000000
H    -2.297000000    -7.019000000     3.040000000
O     3.165000000    -3.232000000    -2.428000000
H     3.411000000    -4.055000000    -2.850000000
H     2.959000000    -2.643000000    -3.154000000
O    -1.980000000    -1.416000000    -3.544000000
H    -1.241000000    -1.003000000    -3.097000000
H    -2.680000000    -1.425000000    -2.891000000
O    -5.306000000    -0.555000000     0.561000000
H    -4.758000000    -0.756000000    -0.198000000
H    -5.167000000    -1.291000000     1.158000000
O     3.641000000    -0.636000000     2.994000000
H     3.761000000     0.094000000     3.602000000
H     2.875000000    -1.103000000     3.329000000
O    -7.945000000    -2.551000000    -0.760000000
H    -8.301000000    -1.968000000    -0.089000000
H    -7.006000000    -2.367000000    -0.764000000
O    -5.297000000    -2.770000000    -2.252000000
H    -4.486000000    -2.545000000    -1.796000000
H    -5.093000000    -3.581000000    -2.718000000
O     2.893000000     1.770000000    -4.874000000
H     3.374000000     1.783000000    -4.046000000
H     2.918000000     2.676000000    -5.180000000
