161
-3042.00583
C    -1.414000000    -0.303000000     0.349000000
H    -2.491000000    -0.409000000     0.448000000
C    -0.820000000     0.860000000     0.617000000
H    -1.246000000     1.715000000     1.136000000
C     0.526000000     1.096000000     0.215000000
C     1.191000000     2.403000000     0.429000000
H     0.508000000     3.067000000     0.962000000
H     2.113000000     2.229000000     0.988000000
H     1.341000000     2.893000000    -0.535000000
C     1.239000000     0.059000000    -0.375000000
H     2.275000000     0.292000000    -0.607000000
C     0.633000000    -1.200000000    -0.551000000
H     1.076000000    -2.123000000    -0.917000000
C    -0.675000000    -1.352000000    -0.235000000
C    -1.330000000    -2.697000000    -0.585000000
O    -0.884000000    -3.292000000    -1.553000000
O    -2.047000000    -3.237000000     0.215000000
O    -3.754000000    -1.516000000    -3.140000000
H    -3.602000000    -0.660000000    -3.542000000
H    -3.010000000    -2.048000000    -3.422000000
O    -2.370000000    -1.632000000     3.986000000
H    -2.212000000    -1.753000000     3.050000000
H    -1.496000000    -1.609000000     4.375000000
O    -0.345000000    -6.027000000    -4.674000000
H    -0.027000000    -5.975000000    -3.773000000
H    -0.566000000    -6.950000000    -4.798000000
O     3.710000000     4.051000000     3.273000000
H     4.473000000     4.402000000     3.732000000
H     3.717000000     4.493000000     2.424000000
O     7.288000000     2.905000000     2.208000000
H     6.360000000     2.691000000     2.108000000
H     7.305000000     3.858000000     2.300000000
O    -2.208000000     4.719000000     5.491000000
H    -2.362000000     4.251000000     4.670000000
H    -2.745000000     5.509000000     5.421000000
O     1.736000000     6.012000000    -1.436000000
H     0.831000000     5.711000000    -1.510000000
H     2.086000000     5.942000000    -2.324000000
O     2.848000000    -3.541000000    -3.456000000
H     3.092000000    -2.634000000    -3.271000000
H     3.193000000    -3.708000000    -4.333000000
O     4.206000000    -0.523000000     0.947000000
H     4.361000000    -1.304000000     1.477000000
H     3.846000000     0.116000000     1.563000000
O    -5.500000000    -0.545000000    -1.413000000
H    -4.837000000    -1.002000000    -1.932000000
H    -5.307000000     0.383000000    -1.541000000
O     0.401000000    -8.125000000    -0.616000000
H     0.683000000    -7.309000000    -1.029000000
H    -0.550000000    -8.043000000    -0.548000000
O     1.797000000    -5.400000000     1.249000000
H     2.471000000    -5.111000000     1.864000000
H     1.624000000    -6.309000000     1.493000000
O    -2.502000000    -1.662000000    -6.201000000
H    -1.960000000    -2.048000000    -5.513000000
H    -1.995000000    -0.912000000    -6.514000000
O    -5.214000000     1.655000000     3.529000000
H    -5.355000000     2.192000000     4.309000000
H    -5.579000000     0.800000000     3.757000000
O    -1.504000000    -3.045000000    -4.000000000
H    -1.627000000    -3.981000000    -4.156000000
H    -1.374000000    -2.974000000    -3.054000000
O     3.545000000     1.300000000     2.887000000
H     3.468000000     2.222000000     3.133000000
H     3.346000000     0.820000000     3.691000000
O    -1.274000000     2.908000000    -3.932000000
H    -1.354000000     3.317000000    -3.070000000
H    -0.379000000     2.570000000    -3.954000000
O    -3.405000000    -6.739000000    -3.994000000
H    -3.400000000    -5.903000000    -4.461000000
H    -4.329000000    -6.902000000    -3.806000000
O     4.681000000    -3.021000000     1.983000000
H     5.013000000    -3.849000000     1.637000000
H     3.942000000    -3.272000000     2.537000000
O    -2.117000000    -6.473000000     3.848000000
H    -2.005000000    -7.404000000     3.655000000
H    -1.951000000    -6.034000000     3.014000000
O     1.047000000     1.716000000    -4.632000000
H     1.473000000     1.757000000    -5.489000000
H     0.979000000     0.780000000    -4.443000000
O    -4.686000000    -5.705000000     2.599000000
H    -4.657000000    -4.817000000     2.243000000
H    -4.064000000    -5.692000000     3.326000000
O     7.436000000    -0.521000000    -1.809000000
H     6.741000000    -0.038000000    -1.363000000
H     8.082000000    -0.699000000    -1.125000000
O    -5.296000000    -1.142000000     3.414000000
H    -5.211000000    -1.592000000     2.574000000
H    -4.450000000    -1.273000000     3.843000000
O     2.600000000     3.657000000    -3.530000000
H     2.299000000     2.879000000    -3.998000000
H     2.871000000     3.330000000    -2.672000000
O     0.968000000    -5.450000000    -2.165000000
H     0.349000000    -4.903000000    -1.681000000
H     1.717000000    -4.877000000    -2.329000000
O    -2.664000000     2.989000000     3.222000000
H    -3.309000000     2.299000000     3.376000000
H    -2.714000000     3.158000000     2.282000000
O    -5.293000000     2.323000000    -2.073000000
H    -5.960000000     3.009000000    -2.091000000
H    -5.084000000     2.166000000    -2.994000000
O    -0.411000000    -3.990000000    -6.638000000
H    -0.784000000    -4.641000000    -7.233000000
H    -0.438000000    -4.408000000    -5.778000000
O     4.450000000     3.471000000    -0.919000000
H     5.180000000     3.918000000    -1.348000000
H     4.257000000     4.010000000    -0.152000000
O     3.493000000     5.433000000     0.510000000
H     3.682000000     6.279000000     0.915000000
H     2.986000000     5.650000000    -0.273000000
O    -1.711000000     4.519000000    -1.598000000
H    -1.091000000     4.793000000    -0.922000000
H    -2.537000000     4.397000000    -1.130000000
O    -4.054000000     3.834000000    -0.109000000
H    -4.871000000     3.853000000     0.389000000
H    -4.184000000     3.140000000    -0.756000000
O    -1.054000000    -5.038000000     1.854000000
H    -0.101000000    -5.124000000     1.876000000
H    -1.220000000    -4.376000000     1.183000000
O     4.720000000     0.746000000    -1.576000000
H     4.160000000     0.563000000    -0.822000000
H     4.833000000     1.696000000    -1.566000000
O    -2.197000000    -8.411000000    -0.271000000
H    -2.678000000    -9.231000000    -0.162000000
H    -2.863000000    -7.729000000    -0.189000000
O     0.133000000     2.363000000     3.955000000
H    -0.670000000     2.836000000     3.739000000
H     0.837000000     2.977000000     3.744000000
O    -0.352000000     5.818000000     0.870000000
H    -1.175000000     6.033000000     1.309000000
H     0.238000000     5.565000000     1.579000000
O     4.451000000    -3.434000000    -0.971000000
H     3.676000000    -3.220000000    -1.491000000
H     4.360000000    -2.905000000    -0.178000000
O     0.522000000    -0.938000000    -4.221000000
H    -0.018000000    -1.709000000    -4.396000000
H     1.055000000    -1.186000000    -3.466000000
O     0.894000000     5.152000000     3.264000000
H     1.797000000     4.836000000     3.294000000
H     0.826000000     5.755000000     4.004000000
O     2.810000000     6.211000000    -4.161000000
H     2.772000000     5.257000000    -4.088000000
H     2.979000000     6.373000000    -5.089000000
O    -4.476000000    -3.035000000     1.283000000
H    -3.615000000    -3.128000000     0.874000000
H    -5.094000000    -3.082000000     0.555000000
O     0.434000000    -0.307000000     3.511000000
H     0.266000000     0.612000000     3.717000000
H     1.051000000    -0.280000000     2.780000000
O    -3.553000000    -5.710000000    -0.211000000
H    -2.850000000    -5.063000000    -0.147000000
H    -3.828000000    -5.856000000     0.694000000
O    -4.843000000    -3.888000000    -4.115000000
H    -5.165000000    -4.529000000    -3.482000000
H    -4.591000000    -3.132000000    -3.585000000
O    -3.249000000     0.680000000     5.370000000
H    -3.277000000     0.152000000     6.169000000
H    -3.074000000     0.048000000     4.672000000
O     3.764000000    -0.980000000    -3.301000000
H     3.898000000    -0.673000000    -4.198000000
H     4.185000000    -0.315000000    -2.755000000
