161
-3021.58428
C    -1.170000000    -0.610000000     0.660000000
H    -2.063000000    -0.900000000     1.209000000
C    -1.078000000     0.656000000     0.174000000
H    -1.883000000     1.346000000     0.413000000
C     0.024000000     1.052000000    -0.530000000
C     0.154000000     2.576000000    -0.787000000
H    -0.258000000     2.816000000    -1.770000000
H    -0.358000000     3.189000000    -0.043000000
H     1.222000000     2.800000000    -0.746000000
C     1.098000000     0.258000000    -0.706000000
H     2.058000000     0.637000000    -1.046000000
C     1.095000000    -0.983000000    -0.133000000
H     2.062000000    -1.477000000    -0.099000000
C    -0.080000000    -1.498000000     0.481000000
C    -0.247000000    -2.880000000     0.954000000
O     0.693000000    -3.669000000     0.704000000
O    -1.273000000    -3.309000000     1.273000000
O    -4.327000000    -0.840000000    -2.987000000
H    -3.938000000    -1.260000000    -2.220000000
H    -3.586000000    -0.669000000    -3.568000000
O     4.186000000    -7.061000000     1.741000000
H     4.116000000    -6.198000000     1.333000000
H     4.934000000    -6.986000000     2.333000000
O     1.247000000    -2.123000000     5.078000000
H     2.165000000    -2.167000000     5.348000000
H     1.255000000    -2.395000000     4.160000000
O    -0.754000000     3.326000000     4.708000000
H    -0.631000000     2.379000000     4.648000000
H    -0.442000000     3.553000000     5.585000000
O    -0.618000000    -7.984000000     0.925000000
H    -0.562000000    -7.150000000     0.457000000
H    -1.556000000    -8.169000000     0.974000000
O     3.264000000    -3.814000000    -0.162000000
H     2.354000000    -3.778000000     0.133000000
H     3.779000000    -3.780000000     0.644000000
O     0.640000000    -5.793000000     2.424000000
H     0.226000000    -6.520000000     1.959000000
H     0.699000000    -5.094000000     1.772000000
O     3.964000000    -0.495000000    -2.510000000
H     4.668000000    -0.297000000    -3.127000000
H     3.893000000    -1.449000000    -2.524000000
O    -2.828000000    -2.672000000    -1.102000000
H    -3.656000000    -2.987000000    -0.740000000
H    -2.228000000    -2.665000000    -0.357000000
O     4.094000000     5.423000000     3.241000000
H     3.605000000     4.757000000     2.757000000
H     3.492000000     5.713000000     3.925000000
O     2.549000000    -7.703000000     3.926000000
H     2.823000000    -8.093000000     3.096000000
H     2.361000000    -6.789000000     3.711000000
O    -4.209000000    -0.150000000     1.824000000
H    -4.832000000     0.564000000     1.685000000
H    -3.423000000     0.280000000     2.161000000
O    -5.545000000    -4.460000000     4.190000000
H    -4.706000000    -4.901000000     4.055000000
H    -5.314000000    -3.540000000     4.317000000
O     1.679000000     0.390000000    -3.916000000
H     2.530000000     0.291000000    -3.491000000
H     1.070000000    -0.082000000    -3.347000000
O     4.443000000     3.098000000     0.141000000
H     4.846000000     2.242000000    -0.002000000
H     5.166000000     3.721000000     0.055000000
O    -0.682000000     1.685000000    -5.368000000
H    -0.061000000     1.767000000    -4.644000000
H    -1.159000000     0.876000000    -5.183000000
O    -4.330000000    -5.723000000    -0.202000000
H    -4.884000000    -6.363000000    -0.649000000
H    -4.596000000    -4.879000000    -0.566000000
O     1.029000000    -4.624000000    -4.610000000
H     0.440000000    -3.908000000    -4.845000000
H     0.845000000    -4.793000000    -3.686000000
O    -1.538000000    -1.565000000    -3.474000000
H    -0.994000000    -2.199000000    -3.942000000
H    -1.587000000    -1.906000000    -2.581000000
O    -3.182000000     2.882000000     3.225000000
H    -3.279000000     2.224000000     3.914000000
H    -2.384000000     3.357000000     3.458000000
O     0.567000000     5.753000000    -4.641000000
H     0.841000000     6.635000000    -4.895000000
H     1.387000000     5.277000000    -4.508000000
O    -1.597000000     6.793000000     1.040000000
H    -2.360000000     6.883000000     1.612000000
H    -0.856000000     6.714000000     1.641000000
O     0.562000000    -4.540000000    -2.038000000
H     0.980000000    -4.126000000    -1.283000000
H    -0.259000000    -4.892000000    -1.694000000
O    -4.509000000    -1.886000000     4.100000000
H    -4.810000000    -1.465000000     3.295000000
H    -3.568000000    -2.006000000     3.969000000
O    -2.707000000     5.443000000    -1.040000000
H    -3.144000000     4.662000000    -0.700000000
H    -2.237000000     5.801000000    -0.287000000
O     2.385000000     3.631000000     2.068000000
H     2.064000000     2.734000000     2.165000000
H     2.970000000     3.595000000     1.311000000
O    -1.743000000     4.317000000    -4.854000000
H    -0.918000000     4.799000000    -4.801000000
H    -1.482000000     3.414000000    -5.035000000
O     1.945000000     6.431000000    -1.539000000
H     2.769000000     6.839000000    -1.273000000
H     1.300000000     6.767000000    -0.916000000
O    -5.374000000    -2.892000000     0.511000000
H    -4.749000000    -2.223000000     0.789000000
H    -6.173000000    -2.405000000     0.311000000
O     6.000000000     0.289000000     2.675000000
H     5.475000000     0.077000000     1.903000000
H     6.606000000     0.965000000     2.374000000
O    -6.256000000     2.030000000     1.728000000
H    -6.897000000     1.764000000     1.069000000
H    -6.762000000     2.531000000     2.367000000
O     4.047000000    -5.305000000    -2.222000000
H     3.539000000    -4.837000000    -1.559000000
H     4.813000000    -4.751000000    -2.373000000
O     3.503000000     3.746000000    -2.344000000
H     2.911000000     4.424000000    -2.018000000
H     3.549000000     3.107000000    -1.633000000
O    -4.715000000    -7.345000000     2.286000000
H    -4.088000000    -6.771000000     1.847000000
H    -5.510000000    -7.281000000     1.758000000
O    -4.730000000     4.941000000    -4.054000000
H    -5.121000000     4.080000000    -3.906000000
H    -3.786000000     4.780000000    -4.045000000
O    -0.617000000    -5.151000000     4.763000000
H    -0.146000000    -5.333000000     3.950000000
H     0.013000000    -5.352000000     5.455000000
O     0.994000000     7.922000000     2.323000000
H     0.378000000     8.465000000     2.815000000
H     0.729000000     7.023000000     2.518000000
O    -1.717000000    -2.344000000     3.646000000
H    -0.934000000    -2.419000000     4.191000000
H    -1.511000000    -2.850000000     2.860000000
O    -4.167000000     3.855000000     0.560000000
H    -5.088000000     3.714000000     0.776000000
H    -3.687000000     3.492000000     1.305000000
O     4.566000000    -4.147000000     2.204000000
H     4.037000000    -4.615000000     2.851000000
H     5.233000000    -3.696000000     2.722000000
O     0.157000000     5.190000000     3.026000000
H     0.649000000     4.585000000     2.471000000
H    -0.045000000     4.684000000     3.812000000
O     5.402000000     0.022000000    -0.158000000
H     4.812000000    -0.054000000    -0.908000000
H     6.240000000     0.287000000    -0.538000000
O     2.688000000     3.121000000    -4.945000000
H     2.721000000     3.260000000    -3.999000000
H     2.566000000     2.176000000    -5.044000000
O    -2.457000000    -5.282000000     2.865000000
H    -1.853000000    -5.226000000     3.605000000
H    -2.388000000    -4.431000000     2.434000000
O    -0.300000000     0.433000000     4.901000000
H     0.055000000    -0.454000000     4.961000000
H    -1.116000000     0.398000000     5.400000000
O    -1.393000000    -5.637000000    -0.513000000
H    -1.306000000    -4.893000000     0.082000000
H    -2.276000000    -5.970000000    -0.353000000
O    -2.892000000    -4.683000000     6.302000000
H    -3.535000000    -5.374000000     6.147000000
H    -2.251000000    -4.789000000     5.599000000
O     0.683000000     1.481000000     2.612000000
H     0.826000000     0.714000000     2.058000000
H     0.272000000     1.133000000     3.403000000
