161
-3045.04942
C    -0.283000000    -0.753000000     1.200000000
H    -0.646000000    -1.368000000     2.019000000
C    -0.758000000     0.538000000     0.941000000
H    -1.462000000     0.944000000     1.663000000
C    -0.269000000     1.223000000    -0.214000000
C    -0.984000000     2.501000000    -0.555000000
H    -2.037000000     2.220000000    -0.484000000
H    -0.806000000     3.237000000     0.232000000
H    -0.745000000     2.838000000    -1.566000000
C     0.614000000     0.564000000    -1.120000000
H     1.001000000     1.164000000    -1.939000000
C     1.009000000    -0.764000000    -0.899000000
H     1.761000000    -1.242000000    -1.521000000
C     0.555000000    -1.400000000     0.260000000
C     0.941000000    -2.836000000     0.639000000
O     2.035000000    -3.284000000     0.261000000
O     0.081000000    -3.587000000     1.081000000
O     2.376000000     3.977000000    -4.745000000
H     2.370000000     4.756000000    -4.189000000
H     3.060000000     4.149000000    -5.392000000
O    -4.761000000     1.252000000     2.952000000
H    -4.656000000     0.480000000     2.396000000
H    -5.646000000     1.172000000     3.308000000
O     6.578000000    -1.223000000     0.819000000
H     6.975000000    -1.019000000    -0.028000000
H     5.638000000    -1.248000000     0.643000000
O     3.557000000    -1.187000000     3.157000000
H     3.789000000    -1.973000000     2.662000000
H     2.708000000    -1.393000000     3.548000000
O     1.736000000    -2.136000000    -5.722000000
H     0.802000000    -1.942000000    -5.651000000
H     1.771000000    -2.997000000    -6.138000000
O     1.878000000    -7.740000000    -0.303000000
H     1.451000000    -8.083000000     0.482000000
H     1.370000000    -6.961000000    -0.531000000
O     0.223000000    -7.660000000     2.351000000
H    -0.592000000    -8.154000000     2.254000000
H    -0.057000000    -6.748000000     2.431000000
O     1.028000000    -2.469000000     3.734000000
H     0.817000000    -3.203000000     3.157000000
H     0.256000000    -2.373000000     4.291000000
O     3.137000000    -4.546000000     2.419000000
H     2.614000000    -4.037000000     1.800000000
H     3.470000000    -5.280000000     1.904000000
O     0.853000000    -6.011000000     5.304000000
H     0.996000000    -6.739000000     4.700000000
H     0.335000000    -5.382000000     4.802000000
O     6.365000000    -2.287000000    -2.536000000
H     6.947000000    -1.535000000    -2.644000000
H     5.493000000    -1.946000000    -2.734000000
O     3.981000000    -6.160000000     0.422000000
H     4.374000000    -5.854000000    -0.395000000
H     3.358000000    -6.834000000     0.151000000
O    -3.653000000    -3.841000000     1.833000000
H    -3.358000000    -3.096000000     2.357000000
H    -4.561000000    -3.633000000     1.612000000
O     2.711000000     0.491000000    -4.327000000
H     3.169000000    -0.094000000    -3.724000000
H     3.136000000     0.346000000    -5.172000000
O     4.782000000    -3.402000000     4.542000000
H     5.648000000    -3.207000000     4.186000000
H     4.334000000    -3.872000000     3.838000000
O    -3.980000000     1.238000000    -3.926000000
H    -3.634000000     1.646000000    -4.720000000
H    -3.333000000     1.443000000    -3.250000000
O     4.654000000     2.535000000     0.678000000
H     4.264000000     2.893000000    -0.120000000
H     4.070000000     1.820000000     0.930000000
O    -1.403000000     6.755000000     0.222000000
H    -1.117000000     7.026000000    -0.651000000
H    -0.620000000     6.381000000     0.625000000
O    -1.674000000     1.754000000    -5.727000000
H    -1.463000000     0.956000000    -5.242000000
H    -0.831000000     2.189000000    -5.850000000
O    -0.898000000    -0.359000000    -4.223000000
H    -0.011000000    -0.191000000    -3.903000000
H    -1.181000000    -1.140000000    -3.748000000
O     5.539000000    -5.160000000    -1.874000000
H     6.202000000    -4.749000000    -1.320000000
H     5.187000000    -4.442000000    -2.400000000
O    -2.143000000    -2.072000000    -1.275000000
H    -1.332000000    -2.164000000    -1.775000000
H    -1.991000000    -2.576000000    -0.476000000
O    -4.133000000    -0.210000000    -1.123000000
H    -3.417000000    -0.845000000    -1.117000000
H    -4.241000000     0.021000000    -2.046000000
O     0.811000000     5.614000000     1.510000000
H     1.290000000     6.124000000     2.164000000
H     0.899000000     4.707000000     1.802000000
O    -2.589000000     5.364000000    -5.745000000
H    -1.887000000     4.800000000    -6.070000000
H    -2.385000000     5.490000000    -4.818000000
O    -0.529000000     1.367000000     4.437000000
H    -0.483000000     1.953000000     5.192000000
H    -0.701000000     0.504000000     4.813000000
O     3.413000000     3.105000000    -1.673000000
H     2.879000000     3.261000000    -2.452000000
H     3.550000000     2.158000000    -1.661000000
O    -3.505000000    -1.604000000     3.155000000
H    -3.605000000    -0.727000000     3.526000000
H    -4.117000000    -1.624000000     2.419000000
O     3.317000000    -2.120000000    -3.410000000
H     3.235000000    -3.049000000    -3.197000000
H     2.796000000    -2.009000000    -4.205000000
O     4.777000000     0.649000000    -2.189000000
H     5.503000000     0.522000000    -1.578000000
H     5.118000000     1.262000000    -2.841000000
O     4.144000000    -1.249000000    -0.291000000
H     3.384000000    -1.818000000    -0.419000000
H     4.104000000    -0.629000000    -1.018000000
O     1.138000000     1.879000000    -5.865000000
H     1.594000000     1.085000000    -5.585000000
H     1.633000000     2.593000000    -5.464000000
O    -5.277000000     2.713000000    -1.346000000
H    -5.174000000     1.974000000    -0.747000000
H    -4.472000000     3.219000000    -1.244000000
O     0.002000000    -5.575000000    -0.584000000
H    -0.943000000    -5.623000000    -0.729000000
H     0.122000000    -4.795000000    -0.044000000
O     2.242000000    -1.852000000     6.340000000
H     2.420000000    -2.738000000     6.654000000
H     2.190000000    -1.941000000     5.388000000
O    -4.432000000     3.702000000     4.813000000
H    -4.124000000     2.959000000     4.294000000
H    -4.914000000     4.246000000     4.190000000
O    -5.143000000    -0.952000000     1.356000000
H    -5.871000000    -1.568000000     1.435000000
H    -4.963000000    -0.915000000     0.416000000
O    -2.535000000     7.195000000     3.050000000
H    -2.019000000     6.640000000     2.466000000
H    -3.374000000     7.300000000     2.602000000
O    -2.821000000    -4.824000000    -0.859000000
H    -3.549000000    -4.450000000    -1.355000000
H    -3.165000000    -4.929000000     0.028000000
O     1.480000000     2.452000000     2.646000000
H     2.057000000     1.915000000     2.103000000
H     1.032000000     1.824000000     3.213000000
O    -2.985000000     4.846000000    -1.544000000
H    -2.373000000     5.132000000    -0.866000000
H    -2.708000000     5.318000000    -2.330000000
O     2.789000000     0.708000000     1.178000000
H     2.133000000     0.337000000     0.587000000
H     3.093000000    -0.037000000     1.696000000
O    -0.100000000    -2.889000000    -3.112000000
H    -0.472000000    -3.716000000    -3.418000000
H     0.745000000    -3.131000000    -2.733000000
O    -1.384000000    -2.440000000     5.050000000
H    -2.146000000    -2.441000000     4.471000000
H    -1.438000000    -3.274000000     5.518000000
O     1.419000000     4.353000000     4.795000000
H     1.385000000     3.759000000     4.046000000
H     1.943000000     3.887000000     5.447000000
O    -0.746000000    -5.100000000     2.916000000
H    -0.603000000    -4.648000000     2.085000000
H    -1.691000000    -5.251000000     2.947000000
O     2.435000000    -4.358000000    -2.280000000
H     2.143000000    -5.263000000    -2.393000000
H     2.182000000    -4.135000000    -1.384000000
O    -1.564000000    -0.116000000     6.672000000
H    -1.642000000    -0.935000000     6.182000000
H    -2.469000000     0.155000000     6.830000000
