161
-3001.41763
C    -1.099000000     0.994000000    -0.117000000
H    -1.874000000     1.750000000    -0.209000000
C    -0.029000000     0.977000000    -0.980000000
H     0.083000000     1.680000000    -1.802000000
C     0.952000000    -0.029000000    -0.879000000
C     2.138000000    -0.179000000    -1.799000000
H     2.365000000     0.834000000    -2.135000000
H     2.942000000    -0.691000000    -1.266000000
H     1.817000000    -0.899000000    -2.555000000
C     0.854000000    -0.883000000     0.284000000
H     1.694000000    -1.515000000     0.560000000
C    -0.240000000    -0.891000000     1.130000000
H    -0.421000000    -1.722000000     1.808000000
C    -1.280000000     0.062000000     0.971000000
C    -2.340000000     0.133000000     2.059000000
O    -2.676000000    -0.814000000     2.796000000
O    -2.883000000     1.190000000     2.128000000
O    -7.507000000    -1.786000000     5.256000000
H    -6.624000000    -1.427000000     5.169000000
H    -8.035000000    -1.274000000     4.644000000
O    -2.995000000     3.975000000     1.352000000
H    -2.861000000     3.206000000     1.906000000
H    -3.940000000     3.998000000     1.200000000
O     3.149000000     4.048000000    -0.903000000
H     2.624000000     3.281000000    -0.673000000
H     2.515000000     4.676000000    -1.250000000
O    -1.613000000    -5.015000000    -1.190000000
H    -0.779000000    -5.465000000    -1.052000000
H    -1.379000000    -4.089000000    -1.242000000
O    -3.380000000    -4.753000000     6.191000000
H    -2.727000000    -4.102000000     5.934000000
H    -4.193000000    -4.449000000     5.787000000
O    -0.864000000     1.067000000     4.501000000
H    -0.114000000     1.205000000     3.922000000
H    -1.626000000     1.138000000     3.926000000
O    -5.868000000     4.327000000     1.164000000
H    -6.490000000     3.764000000     0.704000000
H    -6.411000000     5.006000000     1.564000000
O    -1.773000000     5.469000000    -2.173000000
H    -1.885000000     5.022000000    -3.012000000
H    -2.332000000     6.244000000    -2.239000000
O    -1.794000000     0.707000000     6.935000000
H    -1.213000000     0.928000000     6.207000000
H    -2.675000000     0.858000000     6.592000000
O    -5.115000000    -0.630000000     4.088000000
H    -5.400000000    -1.484000000     3.762000000
H    -4.229000000    -0.525000000     3.742000000
O     3.061000000     1.850000000     2.810000000
H     2.838000000     2.322000000     3.612000000
H     3.883000000     2.247000000     2.520000000
O    -4.307000000     3.011000000    -1.263000000
H    -3.537000000     3.000000000    -1.831000000
H    -4.284000000     3.871000000    -0.845000000
O     5.216000000    -3.778000000     0.229000000
H     5.956000000    -4.111000000     0.737000000
H     4.466000000    -3.861000000     0.817000000
O     2.652000000     0.249000000    -7.195000000
H     3.477000000     0.695000000    -7.389000000
H     2.811000000    -0.198000000    -6.364000000
O    -6.628000000    -2.822000000     2.329000000
H    -6.827000000    -2.202000000     1.627000000
H    -7.419000000    -2.835000000     2.868000000
O    -7.426000000    -0.444000000     0.703000000
H    -6.726000000     0.207000000     0.754000000
H    -7.370000000    -0.786000000    -0.190000000
O    -3.686000000    -3.043000000     2.028000000
H    -3.352000000    -2.206000000     2.353000000
H    -4.638000000    -2.954000000     2.071000000
O    -2.694000000    -5.585000000     1.771000000
H    -2.996000000    -4.680000000     1.847000000
H    -2.321000000    -5.639000000     0.891000000
O    -5.225000000     1.171000000     0.464000000
H    -4.470000000     1.013000000     1.030000000
H    -4.890000000     1.744000000    -0.226000000
O    -2.221000000     2.863000000    -3.300000000
H    -1.325000000     2.857000000    -3.637000000
H    -2.684000000     3.485000000    -3.863000000
O    -1.681000000    -2.842000000     5.242000000
H    -0.810000000    -2.445000000     5.211000000
H    -2.136000000    -2.483000000     4.481000000
O     0.027000000    -4.393000000     2.444000000
H    -0.158000000    -3.830000000     3.195000000
H    -0.697000000    -5.019000000     2.429000000
O     2.021000000    -4.420000000    -3.382000000
H     2.349000000    -4.939000000    -2.648000000
H     1.070000000    -4.519000000    -3.339000000
O     3.979000000    -5.414000000    -1.618000000
H     4.393000000    -4.684000000    -1.159000000
H     4.658000000    -5.741000000    -2.209000000
O     1.114000000     2.793000000     1.158000000
H     0.423000000     2.196000000     0.870000000
H     1.787000000     2.220000000     1.527000000
O    -1.265000000    -0.234000000    -6.415000000
H    -0.570000000     0.417000000    -6.506000000
H    -0.803000000    -1.064000000    -6.298000000
O     6.724000000    -1.669000000    -2.360000000
H     7.654000000    -1.442000000    -2.394000000
H     6.447000000    -1.409000000    -1.481000000
O     1.223000000     5.949000000    -1.643000000
H     0.716000000     6.060000000    -2.447000000
H     0.622000000     5.509000000    -1.041000000
O     0.984000000     4.784000000     3.006000000
H     0.813000000     4.246000000     2.233000000
H     1.627000000     4.283000000     3.508000000
O     5.012000000     0.923000000    -4.581000000
H     5.069000000     0.329000000    -5.329000000
H     5.756000000     0.685000000    -4.028000000
O     0.987000000    -2.004000000    -6.031000000
H     1.864000000    -1.652000000    -5.882000000
H     1.129000000    -2.932000000    -6.218000000
O    -4.860000000     3.205000000     3.660000000
H    -4.869000000     3.826000000     2.931000000
H    -5.004000000     2.352000000     3.250000000
O     3.556000000    -1.595000000    -4.915000000
H     3.762000000    -0.972000000    -4.218000000
H     3.880000000    -2.435000000    -4.588000000
O     0.037000000     3.170000000    -4.582000000
H     0.143000000     2.793000000    -5.456000000
H     0.893000000     3.058000000    -4.168000000
O    -3.391000000     4.393000000     5.541000000
H    -2.982000000     4.955000000     4.882000000
H    -3.987000000     3.834000000     5.043000000
O    -4.456000000     1.170000000     5.888000000
H    -4.062000000     1.876000000     5.375000000
H    -4.693000000     0.507000000     5.241000000
O     5.918000000     3.786000000    -0.173000000
H     6.247000000     3.169000000    -0.827000000
H     5.012000000     3.951000000    -0.434000000
O     1.398000000    -2.063000000     4.421000000
H     2.179000000    -2.009000000     3.872000000
H     1.598000000    -1.513000000     5.178000000
O    -1.105000000     5.708000000     0.343000000
H    -1.304000000     4.854000000     0.726000000
H    -1.500000000     5.678000000    -0.529000000
O     6.539000000     2.566000000    -2.561000000
H     6.752000000     2.116000000    -3.378000000
H     7.376000000     2.912000000    -2.253000000
O     2.889000000     3.410000000    -3.796000000
H     3.726000000     3.084000000    -3.466000000
H     3.102000000     3.808000000    -4.639000000
O    -1.239000000    -2.335000000    -1.462000000
H    -0.770000000    -1.894000000    -0.754000000
H    -1.201000000    -1.719000000    -2.194000000
O     2.680000000    -3.968000000     1.434000000
H     2.987000000    -4.073000000     2.335000000
H     1.741000000    -3.802000000     1.519000000
O     0.094000000     6.007000000    -4.533000000
H     0.521000000     5.152000000    -4.484000000
H    -0.371000000     5.995000000    -5.370000000
O    -7.137000000     1.425000000    -2.097000000
H    -7.127000000     0.469000000    -2.156000000
H    -6.398000000     1.637000000    -1.527000000
O     5.295000000    -0.565000000     0.470000000
H     4.353000000    -0.400000000     0.501000000
H     5.368000000    -1.514000000     0.367000000
O    -1.367000000    -0.572000000    -3.514000000
H    -1.432000000    -0.244000000    -4.411000000
H    -0.943000000     0.137000000    -3.031000000
O     3.428000000    -0.981000000     3.104000000
H     3.205000000    -0.050000000     3.075000000
H     4.292000000    -1.007000000     3.515000000
