161
-3038.63722
C     0.396000000    -0.459000000     1.377000000
H     0.643000000    -0.583000000     2.428000000
C    -0.392000000     0.646000000     1.085000000
H    -0.745000000     1.247000000     1.919000000
C    -0.730000000     0.939000000    -0.207000000
C    -1.479000000     2.261000000    -0.647000000
H    -1.183000000     3.122000000    -0.043000000
H    -1.112000000     2.499000000    -1.647000000
H    -2.556000000     2.082000000    -0.650000000
C    -0.381000000     0.082000000    -1.269000000
H    -0.796000000     0.242000000    -2.261000000
C     0.498000000    -0.978000000    -1.032000000
H     0.742000000    -1.779000000    -1.726000000
C     0.920000000    -1.252000000     0.304000000
C     1.774000000    -2.434000000     0.681000000
O     2.306000000    -3.059000000    -0.166000000
O     2.089000000    -2.572000000     1.858000000
O    -3.540000000     1.378000000     2.146000000
H    -3.409000000     0.831000000     1.371000000
H    -3.002000000     0.967000000     2.823000000
O     6.604000000    -1.636000000    -2.642000000
H     5.987000000    -1.393000000    -1.951000000
H     6.115000000    -2.243000000    -3.197000000
O    -3.663000000    -0.398000000    -0.494000000
H    -3.156000000    -1.181000000    -0.709000000
H    -3.947000000    -0.056000000    -1.341000000
O     4.576000000    -1.391000000    -0.500000000
H     4.570000000    -1.147000000     0.426000000
H     4.014000000    -2.165000000    -0.547000000
O     0.512000000    -1.316000000     5.571000000
H     1.194000000    -1.180000000     6.229000000
H     0.906000000    -1.914000000     4.937000000
O    -1.219000000     1.284000000    -4.531000000
H    -0.414000000     1.798000000    -4.470000000
H    -1.115000000     0.771000000    -5.332000000
O     1.587000000     4.564000000    -1.633000000
H     0.816000000     4.838000000    -1.136000000
H     2.120000000     5.356000000    -1.703000000
O     4.807000000    -3.652000000    -4.020000000
H     4.029000000    -3.788000000    -3.480000000
H     4.530000000    -3.889000000    -4.905000000
O     1.178000000    -5.045000000     5.096000000
H     1.384000000    -4.598000000     5.917000000
H     0.923000000    -4.342000000     4.498000000
O     2.517000000    -5.491000000     0.990000000
H     3.099000000    -5.567000000     0.234000000
H     2.287000000    -4.562000000     1.024000000
O    -3.912000000     2.846000000     4.624000000
H    -3.453000000     2.637000000     3.810000000
H    -4.147000000     3.770000000     4.536000000
O    -2.040000000     6.831000000     2.254000000
H    -2.457000000     6.004000000     2.013000000
H    -1.109000000     6.620000000     2.318000000
O     1.698000000    -0.106000000    -5.118000000
H     2.482000000     0.430000000    -5.003000000
H     1.079000000     0.234000000    -4.471000000
O     1.116000000    -2.632000000    -4.314000000
H     1.277000000    -1.867000000    -4.868000000
H     0.253000000    -2.473000000    -3.931000000
O    -4.635000000     2.848000000    -2.438000000
H    -5.400000000     3.103000000    -2.954000000
H    -4.791000000     3.229000000    -1.574000000
O     3.893000000    -3.971000000     6.104000000
H     4.099000000    -4.717000000     6.666000000
H     3.671000000    -4.361000000     5.259000000
O    -3.657000000     0.180000000    -3.643000000
H    -2.764000000     0.444000000    -3.862000000
H    -4.016000000     0.926000000    -3.162000000
O    -1.684000000     6.757000000    -4.100000000
H    -1.996000000     5.877000000    -4.308000000
H    -0.875000000     6.850000000    -4.604000000
O    -1.605000000    -2.475000000    -3.592000000
H    -2.328000000    -2.770000000    -4.145000000
H    -1.912000000    -2.623000000    -2.698000000
O     4.733000000    -5.159000000    -1.201000000
H     3.940000000    -4.954000000    -1.696000000
H     5.377000000    -5.396000000    -1.869000000
O     3.833000000     3.134000000    -0.186000000
H     3.201000000     3.834000000    -0.026000000
H     3.398000000     2.558000000    -0.816000000
O    -2.312000000    -3.116000000    -0.829000000
H    -1.576000000    -3.727000000    -0.870000000
H    -2.391000000    -2.897000000     0.099000000
O    -0.272000000     5.907000000    -0.349000000
H    -0.052000000     6.787000000    -0.656000000
H     0.069000000     5.873000000     0.544000000
O    -5.205000000    -2.126000000    -3.968000000
H    -5.575000000    -2.378000000    -3.121000000
H    -4.669000000    -1.357000000    -3.775000000
O    -3.322000000    -1.449000000     3.336000000
H    -3.586000000    -2.043000000     2.633000000
H    -3.197000000    -2.017000000     4.096000000
O    -2.179000000    -3.555000000     4.876000000
H    -1.426000000    -3.433000000     4.297000000
H    -1.852000000    -4.117000000     5.579000000
O    -0.387000000     5.361000000     4.572000000
H    -0.722000000     5.389000000     5.468000000
H    -0.695000000     4.523000000     4.227000000
O    -5.405000000     2.714000000     0.504000000
H    -6.068000000     2.380000000    -0.100000000
H    -4.968000000     1.931000000     0.838000000
O     2.333000000    -8.130000000     1.414000000
H     2.799000000    -8.084000000     2.249000000
H     2.303000000    -7.225000000     1.106000000
O     0.337000000     2.136000000     3.868000000
H    -0.270000000     1.396000000     3.891000000
H     0.943000000     1.926000000     3.158000000
O     3.183000000     0.929000000    -1.570000000
H     2.295000000     0.739000000    -1.268000000
H     3.698000000     0.173000000    -1.287000000
O     2.678000000    -3.924000000    -2.556000000
H     2.360000000    -3.719000000    -1.677000000
H     2.039000000    -3.520000000    -3.142000000
O     2.242000000    -7.213000000    -2.237000000
H     2.968000000    -6.753000000    -1.816000000
H     2.582000000    -7.460000000    -3.097000000
O     2.258000000     2.933000000     5.653000000
H     2.969000000     3.269000000     5.107000000
H     1.469000000     3.066000000     5.128000000
O    -0.915000000    -5.523000000    -1.017000000
H    -0.008000000    -5.564000000    -0.716000000
H    -1.421000000    -5.920000000    -0.309000000
O     3.435000000     0.606000000     4.663000000
H     3.194000000     1.478000000     4.976000000
H     3.494000000     0.075000000     5.457000000
O     0.224000000    -5.960000000    -3.541000000
H    -0.261000000    -5.652000000    -2.776000000
H     1.000000000    -6.386000000    -3.177000000
O     3.814000000    -0.601000000     2.002000000
H     3.224000000    -1.353000000     1.949000000
H     3.593000000    -0.181000000     2.833000000
O     3.684000000    -4.410000000     3.263000000
H     3.386000000    -5.246000000     2.903000000
H     3.337000000    -3.752000000     2.660000000
O     6.523000000    -2.899000000     2.982000000
H     5.598000000    -3.132000000     3.065000000
H     6.894000000    -3.584000000     2.426000000
O    -2.900000000     5.899000000    -1.414000000
H    -2.597000000     6.024000000    -2.313000000
H    -2.118000000     5.630000000    -0.932000000
O    -1.489000000     0.193000000     4.409000000
H    -0.881000000    -0.501000000     4.665000000
H    -2.285000000    -0.271000000     4.148000000
O    -3.296000000     4.478000000     1.448000000
H    -4.223000000     4.285000000     1.307000000
H    -2.844000000     3.669000000     1.212000000
O     6.805000000    -4.809000000     0.463000000
H     6.891000000    -5.694000000     0.818000000
H     6.014000000    -4.842000000    -0.075000000
O     0.894000000     6.216000000     1.983000000
H     1.036000000     5.753000000     2.808000000
H     1.535000000     6.927000000     1.995000000
O    -2.467000000     3.922000000    -4.263000000
H    -3.101000000     3.642000000    -3.603000000
H    -2.000000000     3.121000000    -4.502000000
O    -0.015000000    -3.468000000     3.181000000
H     0.793000000    -3.193000000     2.749000000
H    -0.578000000    -3.769000000     2.468000000
O     0.822000000     2.900000000    -4.766000000
H     1.199000000     3.237000000    -5.578000000
H     1.119000000     3.511000000    -4.092000000
