161
-3058.42848
C     0.894000000    -0.698000000    -1.028000000
H     1.664000000    -1.005000000    -1.730000000
C     0.209000000     0.488000000    -1.160000000
H     0.322000000     1.005000000    -2.109000000
C    -0.616000000     1.045000000    -0.237000000
C    -1.455000000     2.234000000    -0.520000000
H    -2.151000000     2.089000000    -1.349000000
H    -2.109000000     2.413000000     0.336000000
H    -0.821000000     3.123000000    -0.490000000
C    -0.704000000     0.448000000     0.986000000
H    -1.451000000     0.814000000     1.685000000
C     0.006000000    -0.736000000     1.251000000
H    -0.110000000    -1.200000000     2.227000000
C     0.821000000    -1.303000000     0.188000000
C     1.555000000    -2.597000000     0.530000000
O     1.657000000    -2.998000000     1.689000000
O     2.282000000    -3.127000000    -0.272000000
O     4.193000000    -1.981000000    -1.819000000
H     4.920000000    -2.577000000    -2.000000000
H     3.594000000    -2.492000000    -1.275000000
O    -2.153000000    -0.101000000    -3.261000000
H    -1.655000000     0.713000000    -3.334000000
H    -2.946000000     0.146000000    -2.785000000
O    -0.478000000     4.334000000    -3.567000000
H     0.195000000     3.846000000    -4.042000000
H    -1.288000000     4.151000000    -4.043000000
O    -3.192000000     4.171000000    -5.085000000
H    -3.026000000     5.039000000    -5.451000000
H    -4.091000000     3.970000000    -5.345000000
O     1.559000000     3.651000000     2.204000000
H     1.235000000     4.173000000     1.470000000
H     0.769000000     3.362000000     2.660000000
O    -0.124000000    -5.035000000     1.979000000
H     0.430000000    -5.798000000     1.811000000
H     0.488000000    -4.301000000     2.029000000
O     4.254000000     0.356000000    -0.155000000
H     3.689000000    -0.409000000    -0.255000000
H     5.122000000     0.049000000    -0.417000000
O     2.389000000    -5.486000000    -1.509000000
H     1.468000000    -5.741000000    -1.561000000
H     2.368000000    -4.562000000    -1.263000000
O     1.085000000    -2.361000000     6.352000000
H     1.294000000    -2.741000000     5.499000000
H     1.238000000    -3.071000000     6.975000000
O    -0.441000000    -0.822000000     4.540000000
H    -1.006000000    -1.593000000     4.499000000
H     0.168000000    -1.008000000     5.255000000
O     5.256000000    -5.087000000     3.733000000
H     5.337000000    -5.227000000     2.790000000
H     6.022000000    -4.561000000     3.965000000
O    -1.046000000     4.977000000     1.368000000
H    -1.774000000     4.639000000     1.890000000
H    -1.409000000     5.079000000     0.489000000
O    -1.646000000    -4.187000000    -3.245000000
H    -1.462000000    -3.958000000    -2.334000000
H    -1.183000000    -3.524000000    -3.757000000
O     5.062000000    -4.024000000     0.907000000
H     4.236000000    -4.024000000     0.424000000
H     5.696000000    -4.406000000     0.300000000
O    -1.789000000    -3.223000000     3.881000000
H    -1.224000000    -3.698000000     3.272000000
H    -2.486000000    -2.864000000     3.331000000
O     3.071000000     4.630000000    -0.441000000
H     3.887000000     4.583000000     0.057000000
H     3.090000000     3.856000000    -1.004000000
O     4.109000000    -7.159000000    -0.196000000
H     3.649000000    -7.285000000     0.634000000
H     3.434000000    -6.850000000    -0.799000000
O     0.964000000     2.887000000    -5.156000000
H     1.604000000     3.493000000    -5.530000000
H     1.348000000     2.020000000    -5.289000000
O    -0.204000000    -6.476000000    -1.480000000
H    -0.793000000    -7.228000000    -1.416000000
H    -0.757000000    -5.722000000    -1.276000000
O    -3.727000000    -2.963000000     1.558000000
H    -3.595000000    -3.909000000     1.613000000
H    -3.930000000    -2.802000000     0.636000000
O     0.250000000     7.343000000    -3.247000000
H     1.053000000     6.834000000    -3.356000000
H    -0.408000000     6.700000000    -2.983000000
O     2.371000000     0.860000000    -5.583000000
H     2.910000000     0.747000000    -6.365000000
H     2.893000000     0.481000000    -4.875000000
O     2.777000000     1.001000000     4.202000000
H     3.021000000     0.089000000     4.043000000
H     3.229000000     1.493000000     3.517000000
O     5.863000000    -2.347000000     2.720000000
H     5.540000000    -2.939000000     2.041000000
H     6.544000000    -2.847000000     3.170000000
O    -1.594000000     2.207000000    -6.288000000
H    -2.267000000     2.426000000    -5.643000000
H    -0.796000000     2.611000000    -5.948000000
O     1.353000000    -6.837000000     4.230000000
H     1.742000000    -7.672000000     3.971000000
H     1.774000000    -6.190000000     3.665000000
O    -1.725000000    -4.601000000    -0.271000000
H    -1.151000000    -4.703000000     0.489000000
H    -1.853000000    -3.656000000    -0.349000000
O     2.406000000    -2.460000000    -4.134000000
H     3.008000000    -2.370000000    -4.873000000
H     2.929000000    -2.218000000    -3.369000000
O     6.238000000    -3.746000000    -2.306000000
H     6.484000000    -4.424000000    -1.676000000
H     6.890000000    -3.820000000    -3.003000000
O     4.091000000     0.137000000    -3.660000000
H     5.001000000     0.342000000    -3.873000000
H     4.139000000    -0.324000000    -2.822000000
O    -4.555000000    -1.550000000    -3.910000000
H    -3.705000000    -1.139000000    -3.752000000
H    -4.358000000    -2.303000000    -4.466000000
O    -4.726000000     0.368000000     3.449000000
H    -3.805000000     0.559000000     3.628000000
H    -4.959000000    -0.309000000     4.085000000
O    -2.217000000    -1.834000000    -0.617000000
H    -2.230000000    -1.474000000    -1.504000000
H    -1.963000000    -1.097000000    -0.062000000
O    -5.379000000    -1.939000000    -1.095000000
H    -5.136000000    -1.046000000    -0.847000000
H    -4.976000000    -2.066000000    -1.954000000
O     3.323000000     2.263000000    -1.710000000
H     3.249000000     1.864000000    -2.577000000
H     3.780000000     1.608000000    -1.183000000
O     3.330000000    -1.615000000     3.472000000
H     4.172000000    -1.908000000     3.122000000
H     2.691000000    -2.221000000     3.098000000
O    -4.399000000     0.945000000    -2.031000000
H    -4.331000000     1.172000000    -1.104000000
H    -4.745000000     1.735000000    -2.446000000
O    -0.542000000    -1.965000000    -4.437000000
H     0.401000000    -1.836000000    -4.335000000
H    -0.935000000    -1.201000000    -4.015000000
O    -4.797000000     1.046000000     0.689000000
H    -4.658000000     0.609000000     1.529000000
H    -4.972000000     1.959000000     0.920000000
O     1.436000000     6.605000000     0.762000000
H     0.581000000     6.250000000     1.005000000
H     1.918000000     5.854000000     0.415000000
O     1.164000000     2.502000000     5.666000000
H     1.746000000     1.996000000     5.099000000
H     0.569000000     2.947000000     5.062000000
O    -5.738000000     3.609000000     1.020000000
H    -6.206000000     4.210000000     1.600000000
H    -6.355000000     3.434000000     0.309000000
O     2.670000000    -4.997000000     2.807000000
H     3.433000000    -4.721000000     3.316000000
H     2.426000000    -4.222000000     2.302000000
O    -0.391000000     4.362000000     4.279000000
H    -0.014000000     5.237000000     4.178000000
H    -1.332000000     4.492000000     4.161000000
O    -1.474000000     5.694000000    -1.324000000
H    -2.152000000     6.236000000    -1.727000000
H    -1.214000000     5.084000000    -2.015000000
O     3.929000000     2.029000000     1.892000000
H     3.019000000     2.322000000     1.850000000
H     4.064000000     1.548000000     1.075000000
O    -2.884000000     3.743000000     3.025000000
H    -2.922000000     2.797000000     3.167000000
H    -3.786000000     4.040000000     3.150000000
O    -2.314000000     1.184000000     4.340000000
H    -1.459000000     0.756000000     4.298000000
H    -2.602000000     1.055000000     5.244000000
