161
-3024.21825
C     0.748000000    -0.568000000    -1.146000000
H     1.082000000    -0.958000000    -2.105000000
C     0.019000000     0.647000000    -1.231000000
H    -0.122000000     1.216000000    -2.146000000
C    -0.502000000     1.123000000    -0.017000000
C    -1.370000000     2.398000000     0.062000000
H    -2.209000000     2.420000000    -0.637000000
H    -1.793000000     2.472000000     1.067000000
H    -0.801000000     3.318000000    -0.087000000
C    -0.337000000     0.374000000     1.151000000
H    -0.804000000     0.627000000     2.100000000
C     0.199000000    -0.952000000     1.104000000
H     0.328000000    -1.589000000     1.976000000
C     0.848000000    -1.342000000     0.001000000
C     1.403000000    -2.703000000    -0.023000000
O     1.674000000    -3.272000000     1.031000000
O     1.639000000    -3.214000000    -1.093000000
O     2.360000000    -2.876000000    -3.648000000
H     3.317000000    -2.882000000    -3.626000000
H     2.099000000    -2.836000000    -2.728000000
O    -6.409000000     1.464000000    -0.816000000
H    -6.313000000     2.085000000    -1.537000000
H    -7.278000000     1.645000000    -0.458000000
O     0.980000000    -0.097000000    -6.655000000
H     1.612000000     0.611000000    -6.786000000
H     0.391000000     0.231000000    -5.976000000
O    -5.205000000     4.213000000    -0.149000000
H    -5.579000000     5.040000000    -0.452000000
H    -4.845000000     3.809000000    -0.939000000
O     1.318000000     3.695000000     1.816000000
H     0.487000000     4.146000000     1.667000000
H     1.985000000     4.320000000     1.531000000
O     0.950000000    -3.643000000     3.463000000
H     1.522000000    -3.017000000     3.909000000
H     1.175000000    -3.554000000     2.537000000
O     2.373000000     1.209000000     2.020000000
H     2.130000000     2.135000000     2.021000000
H     1.816000000     0.816000000     1.348000000
O     1.817000000    -6.218000000    -0.148000000
H     1.742000000    -5.938000000     0.764000000
H     1.821000000    -5.402000000    -0.649000000
O     0.214000000     4.410000000     4.883000000
H    -0.550000000     4.598000000     4.337000000
H    -0.104000000     3.782000000     5.532000000
O    -1.565000000     5.427000000     3.143000000
H    -2.354000000     4.924000000     2.939000000
H    -1.793000000     6.330000000     2.921000000
O    -2.382000000    -2.044000000    -0.675000000
H    -1.556000000    -1.564000000    -0.615000000
H    -3.041000000    -1.427000000    -0.356000000
O    -0.310000000    -2.783000000    -4.411000000
H     0.631000000    -2.614000000    -4.463000000
H    -0.459000000    -3.032000000    -3.499000000
O     4.260000000    -2.060000000    -0.939000000
H     3.599000000    -2.685000000    -0.642000000
H     4.620000000    -2.451000000    -1.735000000
O     2.123000000     6.233000000     1.701000000
H     2.492000000     6.965000000     1.207000000
H     2.288000000     6.455000000     2.618000000
O    -3.458000000    -3.520000000     2.360000000
H    -3.839000000    -3.151000000     1.563000000
H    -3.995000000    -3.165000000     3.068000000
O    -2.585000000     4.954000000    -3.137000000
H    -2.247000000     5.488000000    -2.418000000
H    -1.952000000     4.241000000    -3.223000000
O    -2.264000000    -0.882000000    -6.392000000
H    -1.444000000    -1.277000000    -6.687000000
H    -1.992000000    -0.159000000    -5.828000000
O    -0.614000000    -5.429000000     2.228000000
H    -0.921000000    -5.762000000     3.071000000
H    -0.098000000    -4.653000000     2.451000000
O    -2.042000000    -1.756000000     4.720000000
H    -2.121000000    -2.657000000     4.408000000
H    -2.646000000    -1.258000000     4.168000000
O    -3.244000000     1.453000000    -3.996000000
H    -3.518000000     2.285000000    -4.380000000
H    -4.059000000     1.041000000    -3.709000000
O     2.994000000     0.979000000     5.571000000
H     3.257000000     0.075000000     5.400000000
H     2.093000000     1.030000000     5.251000000
O    -0.652000000     3.644000000    -5.532000000
H    -0.554000000     4.338000000    -6.184000000
H     0.140000000     3.704000000    -4.998000000
O     1.258000000     4.061000000    -3.859000000
H     1.375000000     3.681000000    -2.988000000
H     1.893000000     4.777000000    -3.895000000
O     1.857000000    -7.120000000     3.498000000
H     2.205000000    -7.942000000     3.152000000
H     0.971000000    -7.066000000     3.140000000
O     6.522000000    -1.860000000     0.483000000
H     5.792000000    -2.172000000    -0.051000000
H     6.138000000    -1.708000000     1.347000000
O     3.192000000    -5.343000000    -4.642000000
H     3.017000000    -5.324000000    -5.583000000
H     2.616000000    -4.671000000    -4.277000000
O    -5.284000000     3.365000000    -2.817000000
H    -5.936000000     3.636000000    -3.464000000
H    -4.448000000     3.643000000    -3.190000000
O    -4.026000000    -0.654000000     2.877000000
H    -3.762000000    -0.543000000     1.964000000
H    -4.969000000    -0.818000000     2.836000000
O     3.556000000     0.165000000    -4.247000000
H     3.530000000     0.277000000    -3.296000000
H     3.176000000    -0.701000000    -4.397000000
O     4.947000000    -3.250000000    -3.113000000
H     5.875000000    -3.178000000    -2.893000000
H     4.880000000    -4.071000000    -3.601000000
O     3.883000000     0.681000000    -0.913000000
H     3.913000000    -0.275000000    -0.948000000
H     4.687000000     0.929000000    -0.456000000
O     5.721000000    -5.021000000     0.348000000
H     6.440000000    -4.418000000     0.159000000
H     5.113000000    -4.508000000     0.881000000
O     2.988000000    -8.153000000    -1.801000000
H     2.251000000    -8.581000000    -2.237000000
H     2.590000000    -7.438000000    -1.304000000
O    -1.983000000     6.116000000    -0.900000000
H    -1.233000000     6.496000000    -0.441000000
H    -2.639000000     5.981000000    -0.216000000
O    -4.269000000    -0.071000000    -0.327000000
H    -5.116000000     0.346000000    -0.168000000
H    -4.146000000    -0.011000000    -1.274000000
O    -0.792000000    -4.349000000    -1.966000000
H     0.084000000    -4.140000000    -1.642000000
H    -1.367000000    -3.723000000    -1.525000000
O     3.767000000     4.412000000     0.088000000
H     3.597000000     3.738000000    -0.570000000
H     4.104000000     3.930000000     0.843000000
O     0.977000000    -1.637000000     5.404000000
H     0.418000000    -0.984000000     4.984000000
H     0.393000000    -2.374000000     5.582000000
O    -1.700000000    -6.727000000    -2.933000000
H    -1.938000000    -6.575000000    -3.848000000
H    -1.357000000    -5.885000000    -2.633000000
O     2.316000000     2.798000000    -1.680000000
H     1.856000000     1.969000000    -1.551000000
H     3.232000000     2.547000000    -1.804000000
O     4.020000000    -3.516000000     2.271000000
H     4.358000000    -2.621000000     2.276000000
H     3.125000000    -3.433000000     1.941000000
O    -0.760000000     0.997000000    -4.717000000
H    -0.665000000     1.807000000    -5.219000000
H    -1.578000000     1.109000000    -4.234000000
O    -0.360000000     7.168000000     0.832000000
H    -0.365000000     8.053000000     1.195000000
H     0.516000000     6.834000000     1.027000000
O     3.954000000    -5.340000000     4.381000000
H     4.114000000    -4.786000000     3.617000000
H     3.110000000    -5.755000000     4.203000000
O     0.604000000     1.131000000     4.362000000
H     0.570000000     2.083000000     4.266000000
H     1.144000000     0.836000000     3.628000000
O     4.303000000    -0.890000000     2.284000000
H     3.547000000    -0.339000000     2.489000000
H     4.882000000    -0.321000000     1.777000000
O    -4.065000000     4.471000000     2.553000000
H    -4.253000000     3.591000000     2.878000000
H    -4.599000000     4.554000000     1.763000000
O    -4.580000000     1.972000000     3.537000000
H    -5.494000000     1.841000000     3.285000000
H    -4.209000000     1.091000000     3.562000000
