161
-3022.73798
C     0.816000000    -1.128000000    -0.590000000
H     1.306000000    -1.971000000    -1.070000000
C    -0.226000000    -0.480000000    -1.162000000
H    -0.535000000    -0.863000000    -2.132000000
C    -0.989000000     0.530000000    -0.496000000
C    -2.194000000     1.184000000    -1.072000000
H    -2.916000000     0.393000000    -0.859000000
H    -2.451000000     2.190000000    -0.736000000
H    -2.114000000     1.338000000    -2.150000000
C    -0.642000000     0.884000000     0.770000000
H    -1.172000000     1.696000000     1.261000000
C     0.540000000     0.380000000     1.323000000
H     0.875000000     0.813000000     2.262000000
C     1.202000000    -0.692000000     0.631000000
C     2.514000000    -1.275000000     1.148000000
O     2.884000000    -0.814000000     2.220000000
O     3.106000000    -2.191000000     0.657000000
O     5.462000000    -4.130000000     2.599000000
H     5.731000000    -3.486000000     1.943000000
H     4.512000000    -4.191000000     2.499000000
O    -1.901000000    -3.520000000    -2.358000000
H    -2.590000000    -2.856000000    -2.379000000
H    -1.627000000    -3.552000000    -1.442000000
O     5.735000000    -2.297000000     0.670000000
H     6.130000000    -1.507000000     0.303000000
H     4.795000000    -2.115000000     0.673000000
O    -2.180000000     4.778000000     3.165000000
H    -2.307000000     3.859000000     3.399000000
H    -1.518000000     4.761000000     2.474000000
O     5.116000000    -3.039000000    -3.691000000
H     4.498000000    -2.327000000    -3.525000000
H     5.817000000    -2.634000000    -4.202000000
O    -0.878000000     0.761000000     4.247000000
H    -1.583000000     1.233000000     3.803000000
H    -1.306000000    -0.006000000     4.627000000
O    -3.984000000     4.335000000     1.083000000
H    -4.272000000     5.234000000     0.923000000
H    -3.371000000     4.406000000     1.814000000
O     4.514000000     2.230000000     5.219000000
H     5.204000000     2.770000000     5.604000000
H     4.288000000     2.676000000     4.402000000
O     0.730000000    -3.296000000    -3.611000000
H    -0.131000000    -3.502000000    -3.246000000
H     1.351000000    -3.647000000    -2.973000000
O     1.309000000    -1.352000000     4.277000000
H     0.503000000    -1.724000000     3.919000000
H     1.879000000    -1.239000000     3.516000000
O     3.552000000     1.868000000     2.094000000
H     3.288000000     0.977000000     1.861000000
H     3.066000000     2.427000000     1.488000000
O    -4.721000000     3.511000000    -4.112000000
H    -3.792000000     3.710000000    -3.996000000
H    -5.013000000     4.119000000    -4.791000000
O    -6.004000000     0.376000000    -1.746000000
H    -5.967000000     1.304000000    -1.515000000
H    -5.731000000     0.346000000    -2.663000000
O    -2.232000000    -2.200000000     1.717000000
H    -1.708000000    -1.598000000     1.189000000
H    -2.376000000    -1.733000000     2.541000000
O     5.608000000    -2.600000000     5.052000000
H     5.341000000    -1.824000000     4.561000000
H     6.061000000    -3.146000000     4.410000000
O     0.336000000    -2.004000000     6.877000000
H     0.292000000    -1.123000000     7.250000000
H     0.583000000    -1.865000000     5.963000000
O    -1.304000000    -5.630000000    -4.044000000
H    -1.379000000    -6.459000000    -3.572000000
H    -1.617000000    -4.972000000    -3.423000000
O     2.853000000    -4.388000000     2.257000000
H     1.928000000    -4.549000000     2.443000000
H     2.866000000    -3.529000000     1.835000000
O     3.560000000     1.410000000    -2.638000000
H     4.054000000     1.592000000    -1.839000000
H     2.936000000     2.132000000    -2.704000000
O    -2.130000000     5.179000000    -4.798000000
H    -1.568000000     4.722000000    -4.172000000
H    -1.672000000     6.001000000    -4.974000000
O    -3.105000000     2.282000000     3.496000000
H    -3.644000000     1.684000000     2.978000000
H    -3.683000000     2.576000000     4.200000000
O     5.448000000    -6.941000000    -0.325000000
H     5.144000000    -6.050000000    -0.496000000
H     4.735000000    -7.501000000    -0.630000000
O    -1.119000000     5.262000000    -0.679000000
H    -1.658000000     5.763000000    -1.291000000
H    -0.319000000     5.779000000    -0.586000000
O    -6.175000000     2.301000000     2.089000000
H    -5.655000000     3.052000000     1.805000000
H    -6.802000000     2.162000000     1.380000000
O     8.079000000    -0.961000000     2.954000000
H     8.260000000    -0.941000000     2.014000000
H     7.132000000    -0.839000000     3.017000000
O    -7.178000000    -1.329000000    -0.080000000
H    -6.760000000    -0.781000000    -0.744000000
H    -6.463000000    -1.594000000     0.498000000
O     0.447000000     1.662000000    -4.249000000
H     0.489000000     0.706000000    -4.231000000
H     0.523000000     1.889000000    -5.176000000
O    -1.182000000    -4.152000000     0.148000000
H    -1.512000000    -3.627000000     0.877000000
H    -0.354000000    -4.511000000     0.467000000
O     0.813000000     2.832000000     4.200000000
H     0.523000000     1.919000000     4.195000000
H     0.627000000     3.147000000     3.316000000
O    -2.129000000    -1.127000000    -4.986000000
H    -2.393000000    -0.223000000    -5.160000000
H    -1.228000000    -1.056000000    -4.671000000
O    -2.849000000    -1.164000000     4.143000000
H    -3.621000000    -0.653000000     3.899000000
H    -3.096000000    -1.594000000     4.962000000
O     2.079000000     3.805000000    -2.954000000
H     2.618000000     4.524000000    -3.285000000
H     1.207000000     3.977000000    -3.310000000
O    -4.982000000     0.333000000    -4.454000000
H    -5.643000000     0.258000000    -5.142000000
H    -4.382000000     1.009000000    -4.770000000
O     2.366000000    -4.521000000    -1.883000000
H     2.786000000    -4.022000000    -1.182000000
H     3.009000000    -5.189000000    -2.119000000
O    -0.056000000     4.094000000     1.439000000
H     0.600000000     3.672000000     0.885000000
H    -0.605000000     4.585000000     0.827000000
O     2.586000000     0.049000000     6.394000000
H     1.834000000     0.588000000     6.637000000
H     2.298000000    -0.425000000     5.614000000
O    -0.947000000    -3.401000000     4.151000000
H    -1.276000000    -3.380000000     3.252000000
H    -1.735000000    -3.420000000     4.694000000
O     1.217000000    -1.038000000    -4.927000000
H     1.008000000    -1.836000000    -4.442000000
H     2.166000000    -0.945000000    -4.839000000
O     5.030000000    -0.225000000     3.926000000
H     4.682000000     0.549000000     4.367000000
H     4.375000000    -0.437000000     3.261000000
O    -2.519000000     1.393000000    -5.726000000
H    -1.669000000     1.833000000    -5.706000000
H    -2.972000000     1.781000000    -6.475000000
O    -5.250000000     3.103000000    -1.378000000
H    -4.533000000     3.429000000    -0.833000000
H    -5.044000000     3.420000000    -2.258000000
O    -5.013000000    -2.289000000     1.282000000
H    -5.244000000    -3.050000000     1.815000000
H    -4.089000000    -2.417000000     1.070000000
O    -0.886000000     3.715000000    -3.017000000
H    -0.835000000     3.587000000    -2.069000000
H    -0.466000000     2.938000000    -3.386000000
O    -3.873000000    -1.732000000    -2.532000000
H    -3.718000000    -1.432000000    -3.428000000
H    -4.369000000    -1.023000000    -2.125000000
O     1.858000000     2.875000000    -0.220000000
H     1.549000000     1.986000000    -0.396000000
H     2.085000000     3.224000000    -1.082000000
O     5.097000000    -4.366000000    -1.145000000
H     5.559000000    -3.985000000    -1.892000000
H     5.188000000    -3.715000000    -0.450000000
O    -1.208000000     2.416000000     6.413000000
H    -1.199000000     2.046000000     5.531000000
H    -0.362000000     2.169000000     6.786000000
O     3.915000000    -0.552000000    -4.554000000
H     3.573000000     0.181000000    -4.043000000
H     4.760000000    -0.243000000    -4.881000000
