161
-2991.19004
C     0.402000000    -0.405000000     1.378000000
H     0.687000000    -0.714000000     2.380000000
C    -0.237000000    -1.210000000     0.444000000
H    -0.455000000    -2.236000000     0.727000000
C    -0.541000000    -0.757000000    -0.848000000
C    -1.166000000    -1.747000000    -1.814000000
H    -2.228000000    -1.773000000    -1.563000000
H    -1.013000000    -1.357000000    -2.822000000
H    -0.726000000    -2.741000000    -1.711000000
C    -0.206000000     0.544000000    -1.219000000
H    -0.509000000     0.966000000    -2.174000000
C     0.458000000     1.347000000    -0.250000000
H     0.800000000     2.344000000    -0.516000000
C     0.699000000     0.937000000     1.078000000
C     1.247000000     1.971000000     2.028000000
O     1.623000000     3.052000000     1.655000000
O     1.167000000     1.771000000     3.233000000
O     0.833000000    -5.731000000     0.160000000
H     0.321000000    -6.451000000     0.528000000
H     1.461000000    -6.158000000    -0.424000000
O     0.748000000    -1.209000000     5.798000000
H     0.037000000    -0.613000000     5.562000000
H     0.381000000    -2.083000000     5.667000000
O    -3.282000000     4.354000000    -1.137000000
H    -3.215000000     5.305000000    -1.052000000
H    -4.205000000     4.195000000    -1.336000000
O     3.844000000     2.638000000     5.178000000
H     3.209000000     3.041000000     4.586000000
H     4.185000000     1.888000000     4.690000000
O     3.817000000    -1.859000000     1.568000000
H     3.543000000    -2.708000000     1.221000000
H     3.291000000    -1.742000000     2.358000000
O     0.524000000     2.147000000    -5.064000000
H     0.103000000     2.318000000    -4.222000000
H     1.310000000     1.647000000    -4.842000000
O    -0.554000000     4.595000000    -5.621000000
H     0.070000000     3.878000000    -5.506000000
H    -1.219000000     4.444000000    -4.950000000
O    -3.667000000    -5.548000000    -4.886000000
H    -3.647000000    -5.140000000    -4.021000000
H    -3.468000000    -4.835000000    -5.493000000
O     6.689000000     4.209000000     2.520000000
H     5.735000000     4.221000000     2.599000000
H     6.994000000     4.768000000     3.235000000
O    -1.433000000     2.766000000     3.454000000
H    -1.935000000     2.492000000     2.687000000
H    -0.716000000     2.135000000     3.509000000
O     3.676000000     2.656000000    -0.149000000
H     3.129000000     2.472000000     0.615000000
H     3.475000000     3.564000000    -0.375000000
O     3.976000000     4.750000000     2.654000000
H     4.033000000     5.702000000     2.579000000
H     3.083000000     4.540000000     2.379000000
O     1.745000000    -1.961000000    -3.560000000
H     2.339000000    -1.874000000    -2.815000000
H     1.815000000    -2.880000000    -3.816000000
O     4.438000000    -4.165000000    -1.681000000
H     4.037000000    -5.027000000    -1.577000000
H     3.801000000    -3.557000000    -1.305000000
O    -3.203000000     3.486000000    -4.573000000
H    -3.260000000     3.758000000    -5.489000000
H    -3.501000000     2.577000000    -4.574000000
O    -2.432000000     0.278000000    -6.123000000
H    -2.845000000     0.575000000    -5.312000000
H    -1.601000000    -0.105000000    -5.841000000
O    -3.863000000    -2.375000000     0.865000000
H    -3.651000000    -3.191000000     0.412000000
H    -3.745000000    -1.695000000     0.202000000
O     3.440000000     0.434000000     3.541000000
H     3.285000000    -0.456000000     3.855000000
H     2.565000000     0.778000000     3.355000000
O    -5.123000000    -1.360000000    -3.622000000
H    -5.925000000    -1.536000000    -3.129000000
H    -5.295000000    -1.718000000    -4.493000000
O    -2.213000000    -4.930000000     3.156000000
H    -2.028000000    -4.750000000     2.234000000
H    -3.148000000    -4.750000000     3.253000000
O    -3.505000000     0.545000000    -0.463000000
H    -2.889000000     0.735000000    -1.171000000
H    -3.165000000     1.034000000     0.287000000
O    -3.247000000    -1.106000000     5.191000000
H    -2.598000000    -0.529000000     5.595000000
H    -2.953000000    -1.199000000     4.285000000
O     5.764000000     1.205000000    -1.383000000
H     6.087000000     1.959000000    -1.876000000
H     5.004000000     1.538000000    -0.906000000
O     5.380000000     5.943000000    -0.946000000
H     5.160000000     6.873000000    -0.898000000
H     4.648000000     5.501000000    -0.516000000
O    -2.805000000    -3.309000000    -6.236000000
H    -3.562000000    -3.020000000    -6.745000000
H    -2.160000000    -2.610000000    -6.349000000
O     2.530000000     0.802000000    -3.770000000
H     2.601000000     0.772000000    -2.816000000
H     2.405000000    -0.111000000    -4.030000000
O     2.461000000    -2.153000000     3.984000000
H     2.682000000    -3.035000000     4.284000000
H     1.766000000    -1.866000000     4.577000000
O    -2.531000000    -0.486000000     2.434000000
H    -3.097000000    -1.091000000     1.955000000
H    -1.660000000    -0.627000000     2.064000000
O     3.131000000    -1.745000000    -1.424000000
H     3.727000000    -1.697000000    -0.677000000
H     2.318000000    -1.352000000    -1.108000000
O    -0.067000000    -3.780000000     4.646000000
H     0.571000000    -4.231000000     4.093000000
H    -0.889000000    -3.840000000     4.159000000
O    -2.981000000     2.866000000     5.522000000
H    -2.569000000     3.007000000     4.669000000
H    -3.407000000     3.699000000     5.723000000
O     0.510000000     4.849000000    -1.444000000
H    -0.084000000     4.132000000    -1.663000000
H     0.129000000     5.616000000    -1.872000000
O    -6.545000000     0.379000000    -0.999000000
H    -6.603000000     0.858000000    -0.172000000
H    -5.605000000     0.294000000    -1.161000000
O    -1.951000000    -4.596000000     0.520000000
H    -1.040000000    -4.799000000     0.309000000
H    -2.459000000    -5.265000000     0.061000000
O    -0.103000000    -1.175000000    -5.365000000
H     0.434000000    -1.486000000    -4.636000000
H     0.112000000    -1.764000000    -6.088000000
O     2.013000000    -4.515000000    -4.109000000
H     1.085000000    -4.716000000    -3.987000000
H     2.450000000    -4.945000000    -3.374000000
O    -3.081000000    -5.382000000    -1.996000000
H    -3.965000000    -5.590000000    -1.697000000
H    -2.664000000    -6.234000000    -2.125000000
O     3.034000000    -4.359000000     0.845000000
H     2.242000000    -4.735000000     0.460000000
H     3.434000000    -5.084000000     1.326000000
O     2.946000000     5.262000000    -0.003000000
H     2.031000000     5.086000000    -0.221000000
H     2.912000000     6.023000000     0.577000000
O    -0.463000000    -5.252000000    -3.354000000
H    -0.877000000    -5.637000000    -2.581000000
H    -1.195000000    -5.007000000    -3.920000000
O    -4.511000000     0.988000000    -4.531000000
H    -5.147000000     1.001000000    -5.246000000
H    -4.723000000     0.198000000    -4.035000000
O    -3.249000000     2.671000000     1.108000000
H    -3.785000000     3.199000000     1.699000000
H    -3.147000000     3.216000000     0.327000000
O     2.256000000     5.879000000    -3.478000000
H     2.388000000     5.242000000    -2.776000000
H     3.079000000     6.366000000    -3.517000000
O    -1.369000000     3.383000000    -2.599000000
H    -2.044000000     3.513000000    -1.933000000
H    -1.791000000     3.636000000    -3.421000000
O    -1.303000000     0.632000000     5.773000000
H    -0.510000000     1.142000000     5.935000000
H    -2.012000000     1.274000000     5.809000000
O     1.318000000    -5.275000000     3.067000000
H     1.131000000    -6.071000000     2.570000000
H     1.871000000    -4.754000000     2.485000000
O    -0.203000000     5.329000000     4.190000000
H     0.406000000     5.418000000     3.457000000
H    -0.715000000     4.547000000     3.981000000
O    -0.037000000     4.957000000     1.350000000
H     0.203000000     5.227000000     0.464000000
H     0.661000000     4.358000000     1.615000000
