161
-3025.95639
C     0.526000000    -0.049000000     1.411000000
H     0.850000000    -0.249000000     2.429000000
C    -0.190000000    -1.080000000     0.744000000
H    -0.362000000    -2.061000000     1.180000000
C    -0.666000000    -0.924000000    -0.560000000
C    -1.411000000    -1.902000000    -1.402000000
H    -0.776000000    -2.295000000    -2.198000000
H    -1.715000000    -2.697000000    -0.718000000
H    -2.326000000    -1.454000000    -1.796000000
C    -0.362000000     0.297000000    -1.181000000
H    -0.633000000     0.471000000    -2.219000000
C     0.297000000     1.322000000    -0.562000000
H     0.484000000     2.236000000    -1.120000000
C     0.747000000     1.194000000     0.768000000
C     1.588000000     2.144000000     1.549000000
O     1.933000000     3.190000000     1.067000000
O     2.016000000     1.864000000     2.609000000
O    -0.429000000    -5.336000000     0.388000000
H     0.358000000    -4.924000000     0.030000000
H    -0.116000000    -6.151000000     0.779000000
O    -1.708000000    -1.655000000     4.323000000
H    -2.025000000    -2.545000000     4.169000000
H    -0.782000000    -1.764000000     4.538000000
O    -1.226000000    -0.757000000    -4.883000000
H    -0.669000000    -0.004000000    -5.080000000
H    -1.775000000    -0.466000000    -4.155000000
O     4.565000000     4.501000000     5.383000000
H     3.916000000     3.805000000     5.278000000
H     4.614000000     4.915000000     4.522000000
O     0.875000000    -2.190000000     4.947000000
H     1.681000000    -2.651000000     4.714000000
H     1.120000000    -1.265000000     4.945000000
O    -6.322000000    -3.806000000    -1.421000000
H    -5.651000000    -4.470000000    -1.580000000
H    -6.959000000    -4.239000000    -0.853000000
O     0.577000000     4.987000000    -2.760000000
H    -0.179000000     5.523000000    -2.519000000
H     0.272000000     4.465000000    -3.503000000
O    -1.218000000     3.904000000     0.394000000
H    -1.402000000     4.795000000     0.692000000
H    -1.094000000     3.403000000     1.200000000
O     2.599000000     3.230000000    -1.732000000
H     2.267000000     3.192000000    -0.835000000
H     2.016000000     3.845000000    -2.177000000
O     1.455000000     5.442000000     2.109000000
H     1.694000000     4.595000000     1.730000000
H     0.692000000     5.723000000     1.603000000
O     4.841000000     4.442000000    -2.042000000
H     4.007000000     3.973000000    -2.083000000
H     4.986000000     4.590000000    -1.107000000
O     1.872000000    -4.101000000    -1.085000000
H     2.430000000    -4.451000000    -0.391000000
H     2.166000000    -3.196000000    -1.195000000
O    -1.363000000     0.862000000     3.919000000
H    -1.623000000    -0.055000000     4.013000000
H    -1.086000000     1.123000000     4.797000000
O     3.482000000    -4.890000000     0.785000000
H     4.106000000    -5.569000000     0.527000000
H     3.158000000    -5.175000000     1.639000000
O    -3.025000000    -0.449000000    -7.039000000
H    -2.604000000    -0.686000000    -6.212000000
H    -3.796000000    -1.014000000    -7.086000000
O    -1.124000000     3.888000000    -4.589000000
H    -1.680000000     3.567000000    -3.879000000
H    -1.739000000     4.248000000    -5.229000000
O    -0.478000000    -4.574000000    -3.920000000
H     0.052000000    -4.321000000    -3.164000000
H     0.085000000    -5.166000000    -4.419000000
O    -4.193000000    -2.458000000     1.673000000
H    -3.444000000    -2.020000000     1.268000000
H    -4.097000000    -2.281000000     2.609000000
O    -4.616000000     2.379000000     0.867000000
H    -3.955000000     1.876000000     1.343000000
H    -5.219000000     1.720000000     0.526000000
O     2.919000000     2.379000000     5.095000000
H     2.805000000     1.444000000     5.263000000
H     2.574000000     2.508000000     4.212000000
O     1.617000000    -1.835000000    -4.442000000
H     1.824000000    -1.884000000    -3.509000000
H     0.848000000    -1.267000000    -4.487000000
O    -2.623000000     2.644000000    -1.536000000
H    -3.502000000     2.701000000    -1.160000000
H    -2.095000000     3.235000000    -1.001000000
O    -2.401000000     0.798000000     1.515000000
H    -2.078000000     0.861000000     2.413000000
H    -1.636000000     0.537000000     1.003000000
O     3.162000000     1.698000000    -3.885000000
H     3.818000000     1.002000000    -3.848000000
H     3.052000000     1.972000000    -2.974000000
O     6.597000000    -0.803000000     0.596000000
H     7.075000000    -0.147000000     0.089000000
H     5.987000000    -0.294000000     1.131000000
O    -1.170000000    -3.209000000    -6.109000000
H    -1.084000000    -2.395000000    -5.614000000
H    -0.870000000    -3.890000000    -5.506000000
O    -6.515000000    -0.964000000     1.053000000
H    -5.797000000    -1.593000000     1.124000000
H    -7.177000000    -1.285000000     1.664000000
O     2.428000000    -1.437000000    -1.868000000
H     1.696000000    -0.892000000    -1.579000000
H     2.992000000    -1.507000000    -1.098000000
O     4.263000000     0.338000000     1.954000000
H     3.564000000     0.871000000     2.334000000
H     3.988000000    -0.565000000     2.114000000
O     3.174000000    -0.579000000     5.089000000
H     4.109000000    -0.703000000     4.928000000
H     3.065000000    -0.767000000     6.021000000
O     4.535000000     4.225000000     0.600000000
H     4.976000000     4.297000000     1.447000000
H     3.683000000     3.840000000     0.807000000
O     1.632000000    -4.620000000    -5.865000000
H     1.715000000    -3.689000000    -5.656000000
H     1.923000000    -5.071000000    -5.073000000
O    -0.717000000     3.373000000     3.232000000
H     0.186000000     3.382000000     2.913000000
H    -0.940000000     2.444000000     3.292000000
O    -3.095000000     0.856000000    -3.588000000
H    -3.983000000     1.201000000    -3.687000000
H    -2.741000000     1.319000000    -2.828000000
O     4.026000000    -2.373000000     0.050000000
H     4.944000000    -2.139000000    -0.082000000
H     4.051000000    -3.281000000     0.352000000
O    -2.633000000    -4.237000000     3.742000000
H    -1.972000000    -4.896000000     3.530000000
H    -3.393000000    -4.743000000     4.030000000
O     0.441000000     1.206000000    -5.213000000
H     1.188000000     1.666000000    -4.830000000
H    -0.093000000     1.899000000    -5.601000000
O    -3.280000000    -5.135000000     0.632000000
H    -3.621000000    -4.526000000     1.287000000
H    -2.341000000    -5.181000000     0.815000000
O    -5.532000000    -2.046000000    -4.502000000
H    -5.203000000    -1.292000000    -4.012000000
H    -5.380000000    -2.793000000    -3.924000000
O    -3.294000000    -4.356000000    -4.327000000
H    -3.526000000    -4.787000000    -3.505000000
H    -2.385000000    -4.080000000    -4.205000000
O    -4.288000000    -5.338000000    -1.986000000
H    -3.947000000    -6.216000000    -2.159000000
H    -4.042000000    -5.161000000    -1.078000000
O     2.279000000     8.422000000     1.006000000
H     2.348000000     7.749000000     1.684000000
H     1.442000000     8.246000000     0.578000000
O     0.325000000     0.372000000     6.630000000
H     0.549000000     1.103000000     7.205000000
H     0.465000000    -0.407000000     7.168000000
O     2.298000000    -5.365000000    -3.494000000
H     2.121000000    -4.986000000    -2.633000000
H     2.903000000    -6.085000000    -3.318000000
O     6.553000000     2.436000000     1.719000000
H     5.904000000     1.830000000     2.077000000
H     6.317000000     2.522000000     0.796000000
O     5.010000000     5.632000000     3.026000000
H     4.394000000     6.058000000     2.430000000
H     5.491000000     6.354000000     3.430000000
O     0.905000000     6.238000000     4.769000000
H    -0.026000000     6.066000000     4.913000000
H     1.031000000     6.101000000     3.830000000
O     0.373000000     3.498000000     6.266000000
H    -0.188000000     3.742000000     5.531000000
H     1.244000000     3.402000000     5.881000000
