161
-3016.66894
C     1.416000000     0.130000000    -0.094000000
H     2.485000000     0.311000000    -0.015000000
C     0.788000000    -0.735000000     0.706000000
H     1.444000000    -1.300000000     1.364000000
C    -0.587000000    -0.859000000     0.653000000
C    -1.191000000    -1.803000000     1.672000000
H    -2.171000000    -2.059000000     1.264000000
H    -0.513000000    -2.657000000     1.735000000
H    -1.282000000    -1.235000000     2.600000000
C    -1.374000000    -0.137000000    -0.226000000
H    -2.433000000    -0.335000000    -0.365000000
C    -0.732000000     0.798000000    -1.009000000
H    -1.221000000     1.473000000    -1.706000000
C     0.671000000     1.032000000    -0.882000000
C     1.332000000     2.125000000    -1.729000000
O     0.822000000     3.184000000    -1.945000000
O     2.538000000     2.072000000    -2.023000000
O     0.750000000    -5.308000000     0.507000000
H     1.244000000    -4.530000000     0.767000000
H     1.123000000    -6.015000000     1.034000000
O     1.412000000    -3.100000000     4.171000000
H     2.200000000    -2.954000000     4.695000000
H     1.731000000    -3.150000000     3.269000000
O    -0.071000000     8.011000000    -3.068000000
H     0.876000000     8.113000000    -2.970000000
H    -0.199000000     7.071000000    -3.193000000
O    -7.870000000    -1.672000000     0.152000000
H    -7.076000000    -1.247000000     0.478000000
H    -7.552000000    -2.437000000    -0.328000000
O     3.375000000     0.413000000     5.188000000
H     3.477000000    -0.537000000     5.249000000
H     4.267000000     0.754000000     5.246000000
O     2.452000000     4.301000000    -3.748000000
H     2.133000000     3.662000000    -3.110000000
H     1.708000000     4.884000000    -3.896000000
O    -0.616000000     4.235000000     0.295000000
H    -0.257000000     3.774000000    -0.462000000
H    -0.562000000     3.601000000     1.010000000
O     5.670000000    -0.462000000    -1.297000000
H     5.695000000     0.356000000    -1.795000000
H     5.526000000    -0.186000000    -0.392000000
O    -5.608000000    -2.545000000     1.740000000
H    -6.316000000    -2.628000000     2.379000000
H    -5.129000000    -3.371000000     1.803000000
O     3.849000000    -2.830000000     1.670000000
H     4.518000000    -2.145000000     1.684000000
H     3.741000000    -3.040000000     0.742000000
O    -4.608000000    -1.213000000     5.066000000
H    -4.718000000    -0.990000000     5.991000000
H    -3.678000000    -1.063000000     4.893000000
O    -0.129000000     5.317000000    -3.541000000
H    -0.245000000     4.493000000    -3.068000000
H    -0.585000000     5.183000000    -4.372000000
O    -2.049000000    -2.502000000    -3.129000000
H    -2.174000000    -3.451000000    -3.122000000
H    -1.134000000    -2.382000000    -3.382000000
O    -0.850000000    -4.448000000     4.127000000
H    -0.802000000    -4.873000000     4.984000000
H    -0.048000000    -3.927000000     4.074000000
O    -4.995000000    -2.113000000    -1.835000000
H    -4.850000000    -1.456000000    -1.153000000
H    -4.335000000    -2.785000000    -1.664000000
O     2.525000000     1.679000000     2.889000000
H     2.887000000     1.282000000     3.682000000
H     2.585000000     0.990000000     2.227000000
O     3.639000000    -4.050000000    -0.917000000
H     4.193000000    -3.854000000    -1.672000000
H     3.044000000    -4.733000000    -1.226000000
O     1.244000000    -4.994000000    -2.127000000
H     0.982000000    -5.120000000    -1.214000000
H     1.221000000    -4.046000000    -2.254000000
O     4.120000000     4.091000000    -5.957000000
H     4.609000000     4.876000000    -6.207000000
H     3.750000000     4.302000000    -5.100000000
O     2.465000000     0.641000000    -4.402000000
H     1.568000000     0.546000000    -4.723000000
H     2.370000000     1.056000000    -3.544000000
O    -3.369000000     5.291000000    -3.131000000
H    -3.365000000     6.213000000    -2.875000000
H    -3.149000000     4.818000000    -2.328000000
O     5.181000000    -5.045000000     3.038000000
H     4.620000000    -4.425000000     2.573000000
H     5.587000000    -5.566000000     2.345000000
O    -6.202000000     4.077000000    -1.767000000
H    -6.464000000     3.498000000    -2.483000000
H    -5.250000000     3.992000000    -1.726000000
O    -4.936000000    -0.371000000     0.332000000
H    -5.103000000    -1.093000000     0.939000000
H    -5.714000000     0.182000000     0.398000000
O     5.250000000     2.136000000    -2.480000000
H     5.234000000     2.425000000    -3.392000000
H     4.336000000     1.934000000    -2.276000000
O    -2.527000000     3.119000000    -6.690000000
H    -1.805000000     3.588000000    -6.270000000
H    -3.087000000     2.841000000    -5.966000000
O    -2.977000000    -6.853000000     3.940000000
H    -2.681000000    -5.944000000     3.891000000
H    -2.171000000    -7.363000000     4.015000000
O    -3.661000000     3.289000000    -1.007000000
H    -3.613000000     2.863000000    -0.152000000
H    -3.737000000     2.567000000    -1.631000000
O     0.773000000    -2.266000000    -2.299000000
H     0.480000000    -1.586000000    -1.692000000
H     1.638000000    -1.975000000    -2.585000000
O     2.918000000     4.956000000    -0.120000000
H     3.455000000     5.347000000    -0.808000000
H     2.401000000     4.288000000    -0.570000000
O     7.710000000     2.866000000    -1.270000000
H     7.066000000     2.210000000    -1.537000000
H     7.978000000     3.285000000    -2.088000000
O     0.831000000     6.272000000     0.837000000
H     1.669000000     5.939000000     0.517000000
H     0.216000000     5.553000000     0.690000000
O     4.622000000     5.529000000    -2.413000000
H     3.898000000     5.207000000    -2.950000000
H     5.408000000     5.304000000    -2.909000000
O    -1.877000000     2.634000000     4.436000000
H    -2.046000000     2.957000000     5.321000000
H    -1.797000000     1.686000000     4.539000000
O    -0.562000000     2.315000000     2.187000000
H    -0.920000000     2.520000000     3.050000000
H    -0.043000000     1.523000000     2.324000000
O     5.308000000    -0.038000000     1.564000000
H     5.674000000     0.840000000     1.462000000
H     5.782000000    -0.411000000     2.307000000
O     0.123000000     0.369000000    -5.965000000
H    -0.079000000    -0.299000000    -6.620000000
H    -0.557000000     1.033000000    -6.082000000
O    -1.852000000    -5.742000000     1.661000000
H    -1.645000000    -5.126000000     2.364000000
H    -1.041000000    -5.812000000     1.157000000
O    -3.528000000     2.652000000    -3.884000000
H    -4.477000000     2.529000000    -3.855000000
H    -3.409000000     3.601000000    -3.874000000
O    -3.061000000     6.012000000     0.811000000
H    -2.665000000     5.393000000     0.197000000
H    -3.362000000     5.468000000     1.539000000
O    -3.879000000    -4.739000000    -0.272000000
H    -4.509000000    -5.362000000     0.090000000
H    -3.074000000    -4.899000000     0.221000000
O    -1.384000000    -0.134000000     5.189000000
H    -1.443000000    -0.046000000     6.141000000
H    -0.686000000    -0.774000000     5.052000000
O     1.030000000     1.298000000     6.389000000
H     1.038000000     0.350000000     6.518000000
H     1.654000000     1.449000000     5.679000000
O    -3.525000000     1.646000000     1.306000000
H    -3.802000000     0.753000000     1.098000000
H    -2.632000000     1.549000000     1.635000000
O    -2.530000000     0.077000000    -4.156000000
H    -2.615000000     0.981000000    -3.852000000
H    -2.531000000    -0.446000000    -3.355000000
O     4.666000000     4.895000000     2.213000000
H     4.267000000     4.340000000     2.884000000
H     4.089000000     4.807000000     1.455000000
O     4.425000000     1.116000000    -6.126000000
H     3.880000000     0.832000000    -5.392000000
H     4.186000000     2.033000000    -6.261000000
O     3.298000000    -1.614000000    -2.995000000
H     3.031000000    -0.787000000    -3.396000000
H     3.988000000    -1.369000000    -2.378000000
