161
-3074.36671
C    -0.415000000     1.423000000    -0.075000000
H    -0.665000000     2.478000000    -0.148000000
C     0.687000000     0.914000000    -0.739000000
H     1.383000000     1.622000000    -1.181000000
C     0.958000000    -0.433000000    -0.617000000
C     2.223000000    -1.025000000    -1.176000000
H     2.196000000    -2.117000000    -1.169000000
H     2.290000000    -0.632000000    -2.193000000
H     3.093000000    -0.722000000    -0.590000000
C     0.110000000    -1.300000000     0.055000000
H     0.368000000    -2.348000000     0.178000000
C    -1.009000000    -0.790000000     0.711000000
H    -1.697000000    -1.391000000     1.300000000
C    -1.316000000     0.562000000     0.636000000
C    -2.549000000     1.085000000     1.350000000
O    -3.069000000     0.353000000     2.126000000
O    -2.591000000     2.319000000     1.529000000
O    -1.981000000     3.089000000    -5.116000000
H    -1.501000000     3.106000000    -4.289000000
H    -1.602000000     3.804000000    -5.628000000
O    -0.454000000     3.777000000    -3.041000000
H     0.234000000     3.835000000    -3.704000000
H    -0.008000000     3.966000000    -2.216000000
O    -4.462000000     3.817000000     0.521000000
H    -3.869000000     3.411000000     1.154000000
H    -4.000000000     3.753000000    -0.315000000
O     2.962000000     3.839000000    -2.136000000
H     3.061000000     3.972000000    -3.078000000
H     3.338000000     2.973000000    -1.976000000
O     1.535000000    -5.113000000    -0.199000000
H     0.900000000    -5.497000000    -0.804000000
H     1.044000000    -4.981000000     0.612000000
O    -1.620000000    -3.673000000    -2.401000000
H    -1.760000000    -2.967000000    -1.769000000
H    -1.954000000    -3.324000000    -3.227000000
O    -0.471000000     3.513000000     6.116000000
H    -0.770000000     3.347000000     5.222000000
H    -0.121000000     2.673000000     6.411000000
O     0.009000000    -0.475000000     4.274000000
H     0.073000000     0.161000000     3.562000000
H    -0.902000000    -0.768000000     4.253000000
O    -5.594000000     1.132000000     2.754000000
H    -5.594000000     1.008000000     3.703000000
H    -4.676000000     1.037000000     2.500000000
O    -2.916000000     1.200000000    -2.450000000
H    -3.598000000     1.860000000    -2.571000000
H    -2.131000000     1.703000000    -2.231000000
O    -5.298000000     0.640000000    -0.376000000
H    -5.848000000     0.748000000    -1.152000000
H    -5.390000000     1.466000000     0.099000000
O    -0.741000000     5.252000000     2.219000000
H    -1.164000000     4.759000000     1.516000000
H    -1.329000000     5.989000000     2.383000000
O    -2.972000000    -0.112000000     6.493000000
H    -2.322000000    -0.237000000     5.801000000
H    -2.577000000    -0.514000000     7.267000000
O    -7.084000000     3.020000000     1.465000000
H    -6.397000000     3.488000000     0.991000000
H    -6.655000000     2.227000000     1.787000000
O     2.067000000     0.475000000     2.141000000
H     1.336000000     0.365000000     1.533000000
H     2.708000000     0.992000000     1.653000000
O    -5.265000000    -4.211000000     1.540000000
H    -5.085000000    -3.273000000     1.478000000
H    -4.924000000    -4.464000000     2.398000000
O     3.788000000    -0.413000000    -4.431000000
H     3.642000000    -1.359000000    -4.412000000
H     4.707000000    -0.317000000    -4.679000000
O    -7.360000000    -1.704000000     0.094000000
H    -6.593000000    -1.543000000     0.643000000
H    -7.500000000    -0.879000000    -0.371000000
O    -5.262000000    -1.509000000     1.917000000
H    -4.361000000    -1.187000000     1.896000000
H    -5.776000000    -0.762000000     2.223000000
O     3.628000000    -3.214000000     1.317000000
H     3.766000000    -3.902000000     1.968000000
H     2.841000000    -3.486000000     0.845000000
O     6.381000000     0.680000000     0.842000000
H     6.440000000     0.595000000    -0.110000000
H     6.326000000     1.623000000     0.995000000
O    -1.874000000    -4.419000000     1.860000000
H    -1.926000000    -4.917000000     2.676000000
H    -2.442000000    -4.894000000     1.253000000
O    -0.764000000    -0.574000000    -3.603000000
H    -1.003000000    -0.403000000    -2.692000000
H     0.007000000    -0.027000000    -3.754000000
O    -2.891000000     3.801000000     3.953000000
H    -3.810000000     3.928000000     4.191000000
H    -2.921000000     3.420000000     3.076000000
O    -5.238000000     0.943000000     5.654000000
H    -4.378000000     0.526000000     5.708000000
H    -5.859000000     0.229000000     5.803000000
O    -2.766000000    -1.400000000     3.947000000
H    -3.025000000    -2.180000000     3.454000000
H    -2.981000000    -0.669000000     3.368000000
O     2.352000000    -4.680000000    -5.598000000
H     3.054000000    -5.273000000    -5.329000000
H     2.074000000    -4.255000000    -4.787000000
O     3.289000000    -4.356000000    -2.112000000
H     3.198000000    -5.067000000    -2.747000000
H     2.728000000    -4.615000000    -1.380000000
O     5.099000000    -2.822000000    -0.806000000
H     4.635000000    -2.694000000     0.022000000
H     4.444000000    -3.199000000    -1.392000000
O     0.878000000     4.915000000    -0.900000000
H     1.061000000     4.621000000    -0.007000000
H     1.688000000     4.743000000    -1.379000000
O     1.815000000     3.886000000     1.530000000
H     1.331000000     3.205000000     1.998000000
H     2.135000000     4.468000000     2.219000000
O    -5.669000000     4.423000000     3.473000000
H    -5.945000000     5.319000000     3.280000000
H    -6.285000000     3.873000000     2.989000000
O     1.298000000     0.916000000    -4.230000000
H     2.098000000     0.394000000    -4.292000000
H     1.605000000     1.804000000    -4.044000000
O     1.701000000     3.585000000    -4.870000000
H     2.643000000     3.607000000    -5.038000000
H     1.303000000     3.843000000    -5.701000000
O     3.828000000     2.154000000     0.838000000
H     4.618000000     2.495000000     1.256000000
H     3.156000000     2.809000000     1.026000000
O    -3.686000000     6.602000000     1.431000000
H    -3.926000000     6.593000000     2.357000000
H    -4.018000000     5.772000000     1.089000000
O    -4.493000000    -2.578000000     5.950000000
H    -5.304000000    -2.070000000     5.913000000
H    -3.812000000    -1.960000000     5.686000000
O    -0.191000000    -6.129000000    -1.959000000
H    -0.930000000    -6.705000000    -1.764000000
H    -0.593000000    -5.323000000    -2.281000000
O     6.163000000    -0.381000000    -1.618000000
H     7.019000000    -0.506000000    -2.028000000
H     5.812000000    -1.266000000    -1.520000000
O     5.109000000    -0.873000000     2.487000000
H     4.565000000    -1.360000000     1.868000000
H     5.509000000    -0.181000000     1.962000000
O     2.025000000    -2.475000000     3.709000000
H     2.915000000    -2.321000000     3.392000000
H     1.631000000    -1.603000000     3.748000000
O    -2.430000000     5.054000000    -1.062000000
H    -2.198000000     5.909000000    -0.700000000
H    -1.742000000     4.871000000    -1.703000000
O     4.376000000     1.539000000    -1.892000000
H     4.279000000     1.611000000    -0.942000000
H     5.087000000     0.910000000    -2.013000000
O    -0.383000000    -2.347000000    -5.647000000
H    -0.517000000    -1.679000000    -4.974000000
H     0.538000000    -2.257000000    -5.893000000
O     4.673000000     2.781000000    -4.570000000
H     5.611000000     2.942000000    -4.463000000
H     4.499000000     2.013000000    -4.026000000
O     0.915000000    -4.304000000     2.166000000
H     1.465000000    -3.670000000     2.625000000
H     0.031000000    -3.940000000     2.221000000
O    -0.124000000     2.732000000     2.972000000
H    -0.330000000     3.665000000     3.034000000
H    -0.936000000     2.327000000     2.665000000
O    -3.381000000    -1.182000000    -1.751000000
H    -4.048000000    -0.985000000    -1.093000000
H    -3.103000000    -0.326000000    -2.075000000
