161
-3015.76625
C     1.300000000     0.239000000    -0.373000000
H     2.342000000     0.332000000    -0.667000000
C     0.524000000    -0.701000000    -0.982000000
H     0.800000000    -1.446000000    -1.723000000
C    -0.804000000    -0.838000000    -0.504000000
C    -1.621000000    -1.878000000    -1.019000000
H    -0.985000000    -2.756000000    -1.150000000
H    -2.255000000    -2.262000000    -0.217000000
H    -2.189000000    -1.627000000    -1.917000000
C    -1.270000000     0.068000000     0.473000000
H    -2.261000000     0.047000000     0.920000000
C    -0.423000000     1.034000000     1.043000000
H    -0.714000000     1.683000000     1.865000000
C     0.871000000     1.119000000     0.608000000
C     1.956000000     2.050000000     1.141000000
O     1.580000000     3.120000000     1.524000000
O     3.150000000     1.813000000     0.977000000
O     2.445000000    -5.781000000    -1.690000000
H     2.195000000    -6.586000000    -2.143000000
H     3.400000000    -5.759000000    -1.751000000
O    -3.113000000     5.385000000     3.379000000
H    -2.911000000     5.075000000     4.262000000
H    -2.306000000     5.804000000     3.082000000
O    -5.405000000    -2.352000000     0.558000000
H    -5.354000000    -1.752000000     1.301000000
H    -6.324000000    -2.618000000     0.527000000
O    -4.802000000    -0.516000000     2.377000000
H    -5.336000000    -0.525000000     3.171000000
H    -3.971000000    -0.911000000     2.642000000
O    -4.254000000     0.324000000    -2.083000000
H    -3.987000000    -0.369000000    -2.686000000
H    -3.637000000     1.037000000    -2.249000000
O     1.737000000     5.600000000     0.610000000
H     1.623000000     4.745000000     1.026000000
H     1.573000000     5.438000000    -0.319000000
O    -0.593000000     0.437000000     4.738000000
H    -0.486000000    -0.350000000     5.272000000
H    -0.419000000     0.144000000     3.844000000
O     0.218000000     3.258000000     5.985000000
H    -0.084000000     2.354000000     5.891000000
H    -0.480000000     3.693000000     6.475000000
O     7.431000000     0.075000000     3.669000000
H     6.692000000     0.427000000     3.172000000
H     8.193000000     0.244000000     3.116000000
O    -6.033000000     2.467000000     3.165000000
H    -5.564000000     2.451000000     2.331000000
H    -5.662000000     1.738000000     3.662000000
O    -2.368000000    -5.066000000     0.864000000
H    -2.957000000    -4.391000000     0.527000000
H    -1.562000000    -4.954000000     0.358000000
O     3.492000000    -0.146000000    -3.166000000
H     3.359000000    -0.380000000    -4.085000000
H     3.733000000    -0.970000000    -2.742000000
O    -5.987000000    -0.275000000    -4.706000000
H    -6.017000000    -0.722000000    -3.860000000
H    -6.046000000     0.655000000    -4.488000000
O     5.864000000     5.070000000    -0.462000000
H     5.363000000     4.256000000    -0.516000000
H     5.207000000     5.762000000    -0.531000000
O    -1.233000000     3.749000000     0.438000000
H    -1.627000000     3.821000000     1.308000000
H    -0.295000000     3.864000000     0.591000000
O     2.753000000     2.491000000    -3.001000000
H     3.062000000     1.610000000    -2.786000000
H     2.105000000     2.355000000    -3.693000000
O     4.367000000    -0.433000000     1.283000000
H     3.786000000     0.321000000     1.190000000
H     4.182000000    -0.772000000     2.158000000
O    -4.241000000     1.875000000     0.615000000
H    -4.633000000     1.021000000     0.797000000
H    -3.701000000     1.731000000    -0.161000000
O     6.789000000     1.188000000     0.065000000
H     6.365000000     1.840000000    -0.493000000
H     6.103000000     0.545000000     0.246000000
O     3.791000000     7.174000000    -0.688000000
H     3.100000000     7.035000000    -0.041000000
H     3.351000000     7.075000000    -1.533000000
O    -0.750000000    -5.439000000    -4.329000000
H     0.193000000    -5.327000000    -4.447000000
H    -1.143000000    -4.772000000    -4.892000000
O     0.464000000    -1.628000000     2.294000000
H     0.630000000    -2.544000000     2.070000000
H     0.388000000    -1.185000000     1.450000000
O     1.901000000    -3.402000000    -4.831000000
H     2.729000000    -2.986000000    -5.070000000
H     1.403000000    -2.712000000    -4.394000000
O     0.181000000    -1.102000000    -4.233000000
H     0.360000000    -0.830000000    -5.134000000
H    -0.016000000    -0.287000000    -3.771000000
O    -4.658000000    -2.714000000    -2.884000000
H    -5.165000000    -3.296000000    -3.451000000
H    -4.814000000    -3.045000000    -2.000000000
O    -6.789000000     0.532000000    -1.163000000
H    -6.443000000     0.912000000    -0.355000000
H    -6.012000000     0.328000000    -1.684000000
O     1.024000000    -4.197000000     1.688000000
H     0.665000000    -4.409000000     0.827000000
H     1.971000000    -4.295000000     1.584000000
O    -0.151000000     3.955000000     3.454000000
H     0.121000000     3.971000000     4.372000000
H     0.538000000     3.460000000     3.009000000
O     3.657000000    -2.490000000    -1.913000000
H     3.115000000    -2.338000000    -1.139000000
H     3.375000000    -3.344000000    -2.240000000
O     5.038000000     6.550000000     1.838000000
H     4.992000000     6.857000000     0.933000000
H     4.758000000     5.635000000     1.796000000
O    -3.408000000    -7.246000000     1.971000000
H    -2.624000000    -7.795000000     1.952000000
H    -3.082000000    -6.358000000     1.821000000
O     2.696000000    -1.254000000     4.192000000
H     2.073000000    -0.709000000     4.672000000
H     2.160000000    -1.722000000     3.551000000
O    -0.005000000     3.038000000    -2.063000000
H    -0.339000000     3.338000000    -1.218000000
H     0.475000000     2.235000000    -1.860000000
O     4.820000000     2.643000000    -0.997000000
H     4.089000000     2.825000000    -1.588000000
H     4.408000000     2.505000000    -0.144000000
O     0.004000000    -5.407000000    -0.398000000
H     0.745000000    -5.211000000    -0.971000000
H    -0.227000000    -6.312000000    -0.606000000
O    -3.032000000    -1.354000000    -4.931000000
H    -2.319000000    -1.892000000    -4.585000000
H    -3.827000000    -1.842000000    -4.715000000
O    -4.899000000    -6.028000000    -0.469000000
H    -4.339000000    -6.417000000     0.203000000
H    -4.292000000    -5.578000000    -1.056000000
O    -3.062000000     1.582000000     3.841000000
H    -3.385000000     1.557000000     2.940000000
H    -2.728000000     0.699000000     4.000000000
O     3.803000000     4.204000000     2.451000000
H     4.386000000     3.451000000     2.546000000
H     2.956000000     3.823000000     2.217000000
O    -0.634000000     6.812000000     2.582000000
H     0.085000000     7.440000000     2.519000000
H    -0.208000000     5.980000000     2.788000000
O    -2.882000000     3.557000000     5.833000000
H    -2.351000000     2.988000000     6.390000000
H    -3.003000000     3.057000000     5.026000000
O    -2.507000000    -1.619000000     3.022000000
H    -2.465000000    -2.470000000     3.459000000
H    -1.626000000    -1.485000000     2.674000000
O    -3.410000000    -5.706000000    -2.791000000
H    -3.905000000    -5.408000000    -3.554000000
H    -2.497000000    -5.693000000    -3.079000000
O    -3.058000000     2.794000000    -2.232000000
H    -2.536000000     3.427000000    -1.738000000
H    -2.611000000     2.722000000    -3.075000000
O     2.165000000     5.162000000    -2.261000000
H     1.357000000     5.641000000    -2.443000000
H     1.902000000     4.242000000    -2.252000000
O    -4.525000000     4.774000000     0.982000000
H    -3.929000000     4.860000000     1.726000000
H    -4.391000000     3.880000000     0.669000000
O     6.319000000    -2.376000000    -0.692000000
H     5.700000000    -1.888000000    -0.149000000
H     5.783000000    -2.746000000    -1.393000000
O     6.081000000     2.608000000     3.082000000
H     5.631000000     2.590000000     3.927000000
H     6.527000000     3.455000000     3.066000000
