161
-3027.91162
C     1.310000000     0.181000000    -0.812000000
H     2.210000000     0.306000000    -1.409000000
C     0.443000000    -0.929000000    -0.929000000
H     0.621000000    -1.694000000    -1.681000000
C    -0.688000000    -1.009000000    -0.078000000
C    -1.712000000    -2.157000000    -0.223000000
H    -2.058000000    -2.183000000    -1.258000000
H    -1.170000000    -3.081000000    -0.012000000
H    -2.464000000    -2.111000000     0.567000000
C    -0.976000000     0.012000000     0.814000000
H    -1.843000000    -0.045000000     1.467000000
C    -0.134000000     1.086000000     0.911000000
H    -0.378000000     1.910000000     1.577000000
C     1.000000000     1.227000000     0.118000000
C     1.752000000     2.488000000     0.246000000
O     1.357000000     3.286000000     1.116000000
O     2.723000000     2.708000000    -0.407000000
O     0.768000000    -4.120000000    -4.727000000
H    -0.051000000    -4.287000000    -5.194000000
H     1.148000000    -3.362000000    -5.171000000
O    -1.379000000     7.172000000     1.485000000
H    -0.923000000     6.459000000     1.932000000
H    -1.934000000     7.562000000     2.160000000
O    -5.192000000    -0.638000000     1.443000000
H    -5.381000000    -0.160000000     2.250000000
H    -4.904000000    -1.502000000     1.738000000
O    -3.902000000     2.229000000     0.796000000
H    -4.534000000     1.672000000     1.250000000
H    -4.327000000     2.446000000    -0.034000000
O     4.194000000     6.513000000     2.769000000
H     3.357000000     6.151000000     2.478000000
H     4.505000000     7.027000000     2.025000000
O     2.567000000     5.688000000     0.353000000
H     2.165000000     4.873000000     0.653000000
H     3.224000000     5.411000000    -0.285000000
O    -1.044000000    -7.750000000     0.784000000
H    -1.897000000    -7.353000000     0.957000000
H    -0.570000000    -7.089000000     0.279000000
O    -0.307000000     0.717000000     5.410000000
H    -0.092000000     1.514000000     5.895000000
H     0.526000000     0.252000000     5.332000000
O    -4.888000000    -4.719000000    -0.816000000
H    -5.550000000    -4.906000000    -1.482000000
H    -4.084000000    -4.572000000    -1.312000000
O     0.142000000     1.108000000    -3.562000000
H     0.321000000     0.638000000    -2.747000000
H    -0.519000000     1.758000000    -3.324000000
O     4.697000000    -1.172000000    -0.981000000
H     5.565000000    -0.775000000    -1.050000000
H     4.341000000    -1.125000000    -1.869000000
O    -3.056000000    -6.006000000     1.117000000
H    -3.068000000    -5.110000000     0.780000000
H    -3.876000000    -6.390000000     0.806000000
O    -6.201000000    -5.175000000     1.684000000
H    -6.663000000    -5.729000000     1.055000000
H    -5.391000000    -4.929000000     1.237000000
O    -1.887000000    -2.379000000     3.670000000
H    -1.133000000    -2.556000000     3.107000000
H    -1.510000000    -2.248000000     4.540000000
O    -1.509000000    -0.567000000    -5.814000000
H    -1.566000000    -0.195000000    -4.934000000
H    -1.187000000     0.152000000    -6.357000000
O     0.262000000     4.630000000    -1.369000000
H     1.116000000     4.407000000    -0.999000000
H     0.192000000     5.578000000    -1.252000000
O    -2.662000000    -5.442000000    -2.543000000
H    -2.973000000    -6.308000000    -2.280000000
H    -1.713000000    -5.540000000    -2.614000000
O     0.498000000    -5.647000000     0.057000000
H     1.104000000    -5.097000000     0.553000000
H     0.516000000    -5.284000000    -0.829000000
O     4.558000000     2.943000000    -3.965000000
H     3.968000000     3.496000000    -4.477000000
H     5.062000000     2.460000000    -4.620000000
O     0.624000000    -3.867000000     2.639000000
H     1.191000000    -3.673000000     1.893000000
H     1.026000000    -4.630000000     3.054000000
O     6.168000000    -1.555000000    -4.465000000
H     5.500000000    -0.956000000    -4.133000000
H     6.233000000    -2.237000000    -3.797000000
O     5.504000000     0.285000000     3.263000000
H     5.219000000     0.323000000     2.350000000
H     4.826000000     0.758000000     3.745000000
O    -2.950000000     4.009000000     2.662000000
H    -3.144000000     3.539000000     1.851000000
H    -2.144000000     4.490000000     2.473000000
O    -1.440000000    -3.399000000    -6.209000000
H    -1.128000000    -2.544000000    -6.507000000
H    -2.084000000    -3.196000000    -5.531000000
O     1.945000000    -0.532000000     3.889000000
H     2.435000000    -1.269000000     3.524000000
H     1.110000000    -0.545000000     3.421000000
O     2.947000000     6.519000000    -3.208000000
H     2.908000000     5.999000000    -4.011000000
H     3.275000000     5.911000000    -2.545000000
O    -4.397000000    -2.759000000     2.847000000
H    -3.473000000    -2.583000000     3.030000000
H    -4.562000000    -3.612000000     3.248000000
O     2.283000000     0.734000000    -5.389000000
H     2.665000000     1.359000000    -6.006000000
H     1.694000000     1.260000000    -4.849000000
O    -3.617000000    -0.439000000    -3.287000000
H    -4.497000000    -0.671000000    -2.990000000
H    -3.262000000    -1.254000000    -3.642000000
O     1.870000000    -3.073000000     0.361000000
H     1.247000000    -2.463000000    -0.033000000
H     2.723000000    -2.791000000     0.031000000
O    -0.089000000     5.162000000     2.960000000
H     0.223000000     4.864000000     3.814000000
H     0.405000000     4.640000000     2.328000000
O     4.055000000    -0.058000000    -3.449000000
H     3.533000000    -0.123000000    -4.248000000
H     4.088000000     0.880000000    -3.260000000
O    -5.895000000    -0.861000000    -1.595000000
H    -5.590000000    -0.867000000    -0.688000000
H    -5.740000000    -1.753000000    -1.906000000
O     3.972000000     1.865000000     4.876000000
H     3.141000000     1.879000000     5.350000000
H     3.838000000     2.464000000     4.141000000
O    -2.112000000     1.735000000    -2.176000000
H    -1.870000000     1.681000000    -1.251000000
H    -2.532000000     0.896000000    -2.363000000
O     4.037000000     4.526000000    -1.744000000
H     4.176000000     4.127000000    -2.603000000
H     3.624000000     3.837000000    -1.224000000
O    -0.002000000    -5.622000000    -2.581000000
H     0.347000000    -5.056000000    -3.270000000
H     0.323000000    -6.495000000    -2.801000000
O     3.631000000     3.172000000     2.421000000
H     2.702000000     3.306000000     2.229000000
H     3.827000000     2.307000000     2.061000000
O     1.834000000     8.161000000     1.053000000
H     2.409000000     8.735000000     0.546000000
H     2.160000000     7.279000000     0.876000000
O    -2.959000000     4.832000000     5.255000000
H    -2.801000000     4.325000000     4.458000000
H    -2.340000000     5.560000000     5.201000000
O    -3.053000000     0.158000000     5.502000000
H    -3.250000000    -0.496000000     4.831000000
H    -2.159000000     0.438000000     5.308000000
O    -3.147000000    -3.096000000    -4.062000000
H    -4.012000000    -3.458000000    -4.255000000
H    -2.688000000    -3.803000000    -3.609000000
O    -0.812000000     4.508000000    -3.851000000
H    -1.424000000     5.221000000    -3.666000000
H    -0.536000000     4.199000000    -2.989000000
O    -2.518000000     4.537000000    -0.834000000
H    -1.565000000     4.449000000    -0.838000000
H    -2.842000000     3.637000000    -0.817000000
O     4.130000000     0.753000000     0.951000000
H     3.887000000     1.442000000     0.333000000
H     4.155000000    -0.045000000     0.423000000
O     6.635000000     4.166000000     1.886000000
H     6.633000000     3.590000000     2.651000000
H     5.710000000     4.347000000     1.719000000
O     6.819000000     4.093000000    -2.532000000
H     5.928000000     3.870000000    -2.801000000
H     7.217000000     4.476000000    -3.314000000
O     2.991000000    -3.369000000    -2.659000000
H     2.892000000    -2.744000000    -3.376000000
H     2.621000000    -4.184000000    -2.998000000
