161
-3024.25518
C     1.436000000    -0.018000000    -0.543000000
H     2.401000000    -0.089000000    -1.039000000
C     0.431000000    -1.013000000    -0.673000000
H     0.780000000    -1.869000000    -1.247000000
C    -0.880000000    -0.888000000    -0.145000000
C    -2.015000000    -1.823000000    -0.479000000
H    -2.726000000    -1.891000000     0.347000000
H    -2.610000000    -1.532000000    -1.348000000
H    -1.738000000    -2.851000000    -0.720000000
C    -1.112000000     0.217000000     0.634000000
H    -2.005000000     0.229000000     1.254000000
C    -0.144000000     1.190000000     0.858000000
H    -0.376000000     2.010000000     1.532000000
C     1.154000000     1.101000000     0.211000000
C     2.209000000     2.091000000     0.438000000
O     2.127000000     2.966000000     1.292000000
O     3.076000000     2.171000000    -0.368000000
O     3.354000000    -3.048000000    -1.277000000
H     3.382000000    -4.005000000    -1.295000000
H     3.248000000    -2.829000000    -0.351000000
O     2.057000000     5.285000000    -3.329000000
H     1.881000000     4.849000000    -2.495000000
H     2.248000000     6.192000000    -3.090000000
O    -3.465000000     3.398000000    -2.439000000
H    -4.300000000     3.844000000    -2.581000000
H    -3.484000000     3.145000000    -1.516000000
O    -3.289000000     3.027000000     0.378000000
H    -3.669000000     3.809000000     0.779000000
H    -3.585000000     2.306000000     0.934000000
O     5.466000000     4.088000000     4.870000000
H     4.734000000     4.353000000     5.427000000
H     5.052000000     3.673000000     4.113000000
O    -6.209000000    -1.698000000     2.112000000
H    -5.657000000    -2.208000000     2.704000000
H    -6.612000000    -2.350000000     1.538000000
O     2.361000000     5.354000000     2.592000000
H     1.557000000     5.273000000     3.106000000
H     2.450000000     4.509000000     2.152000000
O    -1.122000000     4.039000000    -1.275000000
H    -1.790000000     3.623000000    -1.820000000
H    -1.201000000     3.606000000    -0.426000000
O    -6.255000000    -3.306000000    -0.287000000
H    -6.752000000    -2.557000000    -0.617000000
H    -6.547000000    -4.042000000    -0.825000000
O    -4.006000000    -4.569000000     0.903000000
H    -3.590000000    -3.987000000     1.539000000
H    -4.717000000    -4.048000000     0.530000000
O     7.060000000     5.404000000    -1.457000000
H     7.818000000     5.155000000    -1.987000000
H     6.307000000     5.077000000    -1.949000000
O    -4.768000000     0.612000000    -1.221000000
H    -4.432000000    -0.284000000    -1.188000000
H    -5.089000000     0.780000000    -0.334000000
O     3.205000000     7.962000000     2.452000000
H     3.041000000     8.430000000     3.270000000
H     3.030000000     7.045000000     2.660000000
O     0.122000000    -5.089000000     0.693000000
H     0.863000000    -4.589000000     1.034000000
H     0.513000000    -5.709000000     0.078000000
O     1.983000000     0.590000000    -4.574000000
H     2.409000000     0.538000000    -5.430000000
H     1.993000000    -0.309000000    -4.247000000
O    -2.317000000    -5.170000000    -2.873000000
H    -2.289000000    -5.588000000    -2.013000000
H    -2.966000000    -4.473000000    -2.780000000
O     5.387000000    -0.776000000     2.947000000
H     4.631000000    -0.316000000     3.312000000
H     5.432000000    -0.477000000     2.038000000
O     0.917000000    -1.313000000     2.639000000
H     0.684000000    -1.252000000     1.713000000
H     0.314000000    -1.965000000     2.995000000
O     0.385000000    -4.359000000    -2.770000000
H     0.809000000    -5.106000000    -2.349000000
H    -0.472000000    -4.691000000    -3.040000000
O    -1.289000000     3.205000000     4.608000000
H    -0.467000000     2.909000000     4.217000000
H    -1.923000000     3.162000000     3.892000000
O     4.311000000     1.730000000    -2.546000000
H     4.014000000     0.856000000    -2.800000000
H     3.831000000     1.921000000    -1.740000000
O     1.938000000    -2.260000000    -3.601000000
H     1.237000000    -2.909000000    -3.546000000
H     2.553000000    -2.513000000    -2.912000000
O    -2.979000000     0.119000000     4.309000000
H    -3.823000000     0.029000000     4.750000000
H    -2.895000000     1.057000000     4.140000000
O     5.380000000    -1.257000000    -1.802000000
H     4.706000000    -1.912000000    -1.616000000
H     5.561000000    -1.358000000    -2.737000000
O     2.690000000    -4.024000000     1.703000000
H     2.425000000    -4.205000000     2.605000000
H     3.647000000    -4.005000000     1.735000000
O    -1.936000000    -2.283000000    -5.062000000
H    -2.732000000    -2.434000000    -4.552000000
H    -1.620000000    -1.430000000    -4.764000000
O    -6.185000000    -0.277000000    -3.447000000
H    -6.237000000     0.451000000    -4.067000000
H    -5.636000000     0.054000000    -2.736000000
O     0.573000000     5.594000000     4.641000000
H     0.260000000     6.481000000     4.463000000
H    -0.221000000     5.060000000     4.659000000
O    -2.177000000    -6.226000000    -0.151000000
H    -1.326000000    -5.910000000     0.155000000
H    -2.812000000    -5.647000000     0.270000000
O     2.955000000     0.043000000     3.651000000
H     2.970000000     0.166000000     4.600000000
H     2.096000000    -0.341000000     3.474000000
O     1.391000000     2.411000000     3.733000000
H     2.123000000     1.804000000     3.843000000
H     1.521000000     2.787000000     2.862000000
O     7.559000000     2.948000000    -0.170000000
H     6.786000000     3.456000000    -0.415000000
H     8.283000000     3.380000000    -0.625000000
O    -5.025000000     0.790000000     1.568000000
H    -5.314000000    -0.120000000     1.640000000
H    -4.629000000     0.983000000     2.418000000
O     5.891000000     0.646000000     0.366000000
H     5.259000000     0.059000000    -0.049000000
H     6.011000000     1.354000000    -0.268000000
O    -3.907000000     3.086000000     3.678000000
H    -4.102000000     3.878000000     3.177000000
H    -4.685000000     2.947000000     4.218000000
O    -0.752000000     0.284000000    -4.072000000
H    -0.699000000     0.221000000    -3.119000000
H     0.160000000     0.330000000    -4.360000000
O     4.792000000     4.463000000    -2.759000000
H     5.055000000     3.545000000    -2.817000000
H     3.962000000     4.506000000    -3.233000000
O     7.063000000     1.468000000     2.655000000
H     7.004000000     0.959000000     1.846000000
H     6.323000000     2.073000000     2.611000000
O    -0.454000000    -0.193000000     6.123000000
H    -0.208000000    -1.113000000     6.024000000
H    -1.063000000    -0.029000000     5.403000000
O     4.908000000     4.011000000     0.044000000
H     4.634000000     4.670000000    -0.594000000
H     4.233000000     3.334000000    -0.006000000
O    -1.183000000    -3.498000000     2.635000000
H    -0.719000000    -4.063000000     2.016000000
H    -1.655000000    -4.105000000     3.205000000
O     1.643000000     4.839000000    -0.571000000
H     0.704000000     4.672000000    -0.657000000
H     1.943000000     4.195000000     0.070000000
O    -3.612000000    -2.139000000     2.729000000
H    -3.395000000    -1.505000000     3.413000000
H    -2.769000000    -2.515000000     2.475000000
O    -4.148000000    -2.685000000    -3.201000000
H    -4.892000000    -2.225000000    -3.591000000
H    -4.449000000    -2.929000000    -2.326000000
O     1.336000000     7.549000000     0.380000000
H     1.553000000     6.743000000    -0.087000000
H     2.076000000     7.692000000     0.969000000
O     2.838000000     4.460000000     5.941000000
H     2.210000000     4.103000000     5.313000000
H     2.961000000     5.369000000     5.667000000
O     6.915000000     5.386000000     1.779000000
H     6.277000000     4.774000000     1.413000000
H     6.410000000     6.181000000     1.954000000
O     4.691000000     2.932000000     2.668000000
H     4.410000000     2.040000000     2.465000000
H     4.478000000     3.435000000     1.882000000
