161
-3021.82410
C     1.174000000     0.903000000    -0.188000000
H     2.098000000     1.420000000    -0.435000000
C     0.980000000    -0.444000000    -0.653000000
H     1.734000000    -0.943000000    -1.256000000
C    -0.187000000    -1.131000000    -0.504000000
C    -0.331000000    -2.487000000    -1.077000000
H    -1.230000000    -2.472000000    -1.696000000
H     0.517000000    -2.865000000    -1.652000000
H    -0.388000000    -3.258000000    -0.306000000
C    -1.128000000    -0.568000000     0.399000000
H    -1.961000000    -1.212000000     0.666000000
C    -0.922000000     0.700000000     0.968000000
H    -1.615000000     1.015000000     1.744000000
C     0.215000000     1.477000000     0.640000000
C     0.343000000     2.881000000     1.030000000
O    -0.661000000     3.463000000     1.437000000
O     1.355000000     3.516000000     0.876000000
O    -2.911000000     2.947000000     3.433000000
H    -3.565000000     3.600000000     3.183000000
H    -2.374000000     2.833000000     2.648000000
O    -3.155000000     2.778000000    -0.792000000
H    -3.844000000     2.272000000    -0.362000000
H    -2.640000000     3.142000000    -0.071000000
O    -4.125000000     5.167000000     2.109000000
H    -4.075000000     6.004000000     1.648000000
H    -4.778000000     4.665000000     1.622000000
O    -6.608000000     2.458000000     1.260000000
H    -6.295000000     1.601000000     1.547000000
H    -6.892000000     2.891000000     2.065000000
O     3.513000000    -1.490000000    -3.583000000
H     3.720000000    -2.201000000    -4.190000000
H     3.885000000    -1.773000000    -2.748000000
O     2.787000000    -4.750000000     0.713000000
H     3.443000000    -5.254000000     1.195000000
H     2.436000000    -4.136000000     1.357000000
O    -1.472000000    -0.117000000     4.243000000
H    -0.625000000     0.323000000     4.173000000
H    -1.969000000     0.416000000     4.863000000
O    -0.212000000    -1.551000000    -7.166000000
H    -0.561000000    -1.919000000    -7.977000000
H    -0.457000000    -2.184000000    -6.491000000
O    -0.309000000     5.859000000    -3.171000000
H    -0.445000000     6.759000000    -2.873000000
H     0.623000000     5.817000000    -3.385000000
O    -5.206000000     0.805000000    -1.691000000
H    -5.769000000     0.184000000    -1.230000000
H    -5.721000000     1.611000000    -1.733000000
O    -4.985000000    -3.952000000    -1.331000000
H    -5.837000000    -3.669000000    -1.664000000
H    -4.524000000    -3.139000000    -1.129000000
O     0.603000000     7.947000000     1.361000000
H     0.271000000     7.123000000     1.005000000
H     0.941000000     7.716000000     2.226000000
O     5.391000000     0.676000000     3.196000000
H     5.814000000     1.407000000     2.744000000
H     5.812000000     0.649000000     4.055000000
O    -2.905000000    -2.192000000    -4.559000000
H    -3.362000000    -1.940000000    -5.362000000
H    -2.494000000    -1.383000000    -4.254000000
O     0.772000000    -3.067000000    -4.820000000
H     1.711000000    -3.036000000    -4.634000000
H     0.392000000    -3.512000000    -4.063000000
O    -2.637000000    -3.994000000    -6.855000000
H    -3.318000000    -3.455000000    -7.257000000
H    -2.479000000    -3.584000000    -6.005000000
O     5.477000000     3.554000000    -2.107000000
H     5.371000000     2.832000000    -1.487000000
H     5.736000000     3.131000000    -2.926000000
O     0.787000000     0.840000000    -4.319000000
H     0.653000000     1.647000000    -3.821000000
H     0.000000000     0.322000000    -4.149000000
O    -6.473000000    -0.058000000     2.536000000
H    -5.863000000    -0.750000000     2.283000000
H    -6.088000000     0.324000000     3.325000000
O    -0.342000000    -6.590000000     1.400000000
H    -1.129000000    -6.962000000     1.002000000
H     0.355000000    -7.207000000     1.177000000
O    -0.093000000    -5.135000000    -3.273000000
H    -0.827000000    -5.401000000    -2.719000000
H     0.043000000    -5.876000000    -3.863000000
O     5.344000000    -3.832000000    -1.918000000
H     4.417000000    -3.978000000    -1.730000000
H     5.708000000    -4.711000000    -2.024000000
O     5.277000000    -1.582000000    -0.532000000
H     5.379000000    -2.409000000    -1.003000000
H     5.185000000    -1.838000000     0.386000000
O    -3.261000000    -4.656000000    -3.378000000
H    -3.831000000    -4.308000000    -2.691000000
H    -3.042000000    -3.895000000    -3.915000000
O    -3.879000000     3.988000000     5.804000000
H    -3.775000000     3.449000000     5.020000000
H    -4.320000000     3.416000000     6.432000000
O     1.281000000     3.319000000    -2.584000000
H     1.654000000     3.793000000    -1.841000000
H     2.040000000     3.045000000    -3.099000000
O     0.600000000    -4.578000000    -6.920000000
H     0.728000000    -5.490000000    -6.659000000
H     0.455000000    -4.112000000    -6.097000000
O     2.552000000    -4.736000000    -1.975000000
H     2.512000000    -4.824000000    -1.022000000
H     1.639000000    -4.786000000    -2.258000000
O    -3.167000000     5.264000000    -2.305000000
H    -2.351000000     5.346000000    -2.798000000
H    -3.154000000     4.368000000    -1.969000000
O    -4.717000000    -2.390000000     2.317000000
H    -5.144000000    -2.605000000     3.146000000
H    -4.268000000    -3.197000000     2.063000000
O    -1.781000000    -2.729000000     3.930000000
H    -2.188000000    -3.367000000     3.344000000
H    -2.361000000    -1.968000000     3.897000000
O     5.132000000     1.040000000    -0.737000000
H     5.738000000     1.351000000    -0.064000000
H     5.041000000     0.103000000    -0.563000000
O     1.748000000    -2.067000000     2.016000000
H     0.849000000    -2.168000000     2.328000000
H     1.664000000    -1.979000000     1.067000000
O    -2.339000000    -0.082000000    -3.157000000
H    -3.070000000    -0.229000000    -2.558000000
H    -1.762000000     0.521000000    -2.689000000
O    -1.122000000     2.382000000    -2.811000000
H    -0.251000000     2.550000000    -2.449000000
H    -1.723000000     2.590000000    -2.096000000
O     2.754000000     6.432000000    -3.360000000
H     2.821000000     6.046000000    -2.486000000
H     3.068000000     5.747000000    -3.949000000
O     2.666000000     0.570000000     3.043000000
H     3.559000000     0.640000000     2.707000000
H     2.375000000    -0.300000000     2.768000000
O     0.482000000     1.718000000     4.146000000
H    -0.007000000     2.347000000     3.615000000
H     1.079000000     1.296000000     3.528000000
O     6.393000000     3.087000000     2.951000000
H     5.546000000     3.456000000     2.700000000
H     6.409000000     3.153000000     3.906000000
O    -2.681000000    -4.307000000     1.835000000
H    -2.948000000    -5.078000000     2.336000000
H    -2.055000000    -4.644000000     1.193000000
O    -0.638000000     5.731000000    -0.089000000
H    -1.268000000     5.587000000    -0.796000000
H    -0.705000000     4.946000000     0.455000000
O     3.345000000     1.755000000    -4.279000000
H     3.920000000     1.328000000    -3.644000000
H     2.647000000     1.118000000    -4.436000000
O     2.124000000     5.443000000    -0.800000000
H     1.278000000     5.888000000    -0.840000000
H     2.050000000     4.852000000    -0.051000000
O     4.303000000     6.440000000     0.484000000
H     3.505000000     5.949000000     0.289000000
H     4.613000000     6.743000000    -0.370000000
O     0.125000000     5.174000000     3.156000000
H    -0.775000000     5.287000000     3.462000000
H     0.047000000     4.606000000     2.389000000
O     1.609000000     7.141000000     3.675000000
H     1.167000000     7.433000000     4.472000000
H     1.213000000     6.291000000     3.480000000
O     2.446000000     3.941000000     3.998000000
H     2.470000000     2.986000000     3.947000000
H     1.515000000     4.159000000     3.973000000
O     3.801000000     3.753000000     1.812000000
H     3.434000000     4.021000000     2.654000000
H     3.040000000     3.639000000     1.243000000
