161
-3036.76552
C    -0.133000000     1.447000000     0.247000000
H    -0.315000000     2.519000000     0.254000000
C     0.126000000     0.858000000    -0.953000000
H     0.099000000     1.489000000    -1.838000000
C     0.356000000    -0.472000000    -1.048000000
C     0.492000000    -1.135000000    -2.442000000
H    -0.353000000    -1.827000000    -2.483000000
H     0.344000000    -0.360000000    -3.196000000
H     1.398000000    -1.692000000    -2.688000000
C     0.214000000    -1.277000000     0.066000000
H     0.356000000    -2.354000000     0.023000000
C     0.027000000    -0.699000000     1.301000000
H     0.081000000    -1.271000000     2.223000000
C    -0.247000000     0.670000000     1.360000000
C    -0.679000000     1.237000000     2.681000000
O    -1.221000000     0.466000000     3.484000000
O    -0.549000000     2.403000000     3.015000000
O     2.106000000    -3.215000000     3.978000000
H     1.414000000    -2.583000000     4.171000000
H     2.908000000    -2.694000000     3.959000000
O     0.275000000    -0.226000000     7.449000000
H     0.531000000     0.632000000     7.112000000
H    -0.651000000    -0.306000000     7.220000000
O    -4.644000000    -2.277000000    -4.269000000
H    -4.056000000    -1.522000000    -4.267000000
H    -4.104000000    -3.000000000    -4.590000000
O    -2.032000000    -3.873000000    -3.315000000
H    -1.192000000    -4.328000000    -3.251000000
H    -2.488000000    -4.312000000    -4.033000000
O    -2.679000000     4.863000000     2.644000000
H    -2.194000000     5.194000000     1.887000000
H    -2.265000000     4.024000000     2.845000000
O     3.102000000    -2.952000000     1.078000000
H     3.678000000    -3.505000000     1.606000000
H     3.063000000    -2.123000000     1.556000000
O    -2.808000000    -0.246000000    -1.082000000
H    -1.967000000    -0.110000000    -0.646000000
H    -2.884000000     0.488000000    -1.691000000
O    -3.144000000    -3.209000000     4.897000000
H    -3.822000000    -3.686000000     5.374000000
H    -2.739000000    -3.868000000     4.333000000
O    -0.495000000     1.973000000     5.771000000
H    -0.446000000     1.768000000     4.838000000
H    -1.370000000     2.342000000     5.891000000
O     1.429000000     4.002000000     3.431000000
H     1.165000000     4.477000000     2.643000000
H     0.673000000     3.456000000     3.646000000
O    -1.476000000    -6.061000000     1.381000000
H    -1.730000000    -5.554000000     0.610000000
H    -0.596000000    -5.751000000     1.593000000
O     0.612000000    -4.781000000    -2.779000000
H     1.464000000    -5.168000000    -2.580000000
H     0.657000000    -3.899000000    -2.410000000
O    -1.188000000     6.430000000     0.816000000
H    -0.349000000     5.978000000     0.904000000
H    -1.419000000     6.329000000    -0.107000000
O     5.805000000    -3.063000000    -2.779000000
H     5.871000000    -2.129000000    -2.980000000
H     5.264000000    -3.422000000    -3.481000000
O    -1.317000000     6.317000000     4.577000000
H    -1.915000000     6.495000000     5.303000000
H    -1.891000000     6.132000000     3.833000000
O     1.017000000    -4.862000000     1.905000000
H     1.473000000    -4.349000000     1.238000000
H     1.277000000    -4.462000000     2.734000000
O     3.303000000    -4.594000000    -1.192000000
H     3.088000000    -4.013000000    -0.462000000
H     4.168000000    -4.303000000    -1.483000000
O     1.027000000    -7.059000000     0.089000000
H     1.345000000    -7.907000000     0.396000000
H     1.272000000    -6.446000000     0.782000000
O     0.399000000    -1.307000000     4.849000000
H    -0.070000000    -0.644000000     4.343000000
H     0.082000000    -1.194000000     5.745000000
O     1.871000000    -1.593000000    -6.616000000
H     2.038000000    -1.706000000    -7.552000000
H     1.041000000    -2.045000000    -6.465000000
O     2.918000000     1.892000000     1.849000000
H     2.557000000     2.406000000     2.571000000
H     2.910000000     0.990000000     2.170000000
O    -3.592000000    -2.808000000     0.680000000
H    -3.573000000    -2.516000000     1.592000000
H    -3.214000000    -2.080000000     0.188000000
O     0.891000000     3.031000000    -4.549000000
H     1.282000000     3.279000000    -5.388000000
H     0.644000000     3.864000000    -4.146000000
O    -3.100000000     3.773000000    -0.850000000
H    -3.202000000     3.018000000    -1.428000000
H    -2.912000000     3.393000000     0.009000000
O    -1.690000000     2.205000000    -5.165000000
H    -0.844000000     1.984000000    -4.776000000
H    -1.513000000     2.980000000    -5.698000000
O    -2.932000000    -0.403000000    -5.404000000
H    -2.680000000    -0.786000000    -6.245000000
H    -2.408000000     0.396000000    -5.339000000
O     4.391000000    -0.100000000    -3.140000000
H     4.398000000    -0.495000000    -2.268000000
H     4.172000000     0.819000000    -2.985000000
O     3.054000000     2.459000000    -2.807000000
H     3.740000000     3.063000000    -3.091000000
H     2.308000000     2.662000000    -3.371000000
O     4.393000000    -4.493000000    -4.500000000
H     4.385000000    -5.327000000    -4.969000000
H     3.843000000    -3.915000000    -5.028000000
O     4.315000000    -0.992000000    -0.471000000
H     5.182000000    -1.281000000    -0.185000000
H     3.705000000    -1.500000000     0.063000000
O     3.364000000    -0.649000000     5.759000000
H     2.521000000    -1.089000000     5.866000000
H     3.361000000     0.039000000     6.425000000
O    -5.331000000    -1.092000000    -1.846000000
H    -5.073000000    -1.757000000    -2.485000000
H    -4.505000000    -0.696000000    -1.567000000
O    -1.670000000     6.321000000    -1.985000000
H    -2.031000000     5.469000000    -1.743000000
H    -1.133000000     6.143000000    -2.757000000
O     1.130000000    -5.545000000    -5.954000000
H     0.889000000    -5.034000000    -5.182000000
H     1.587000000    -6.309000000    -5.602000000
O    -6.032000000     2.481000000     4.755000000
H    -5.783000000     3.285000000     5.210000000
H    -5.199000000     2.080000000     4.506000000
O    -5.112000000     3.272000000     2.197000000
H    -4.339000000     3.836000000     2.227000000
H    -4.793000000     2.413000000     2.474000000
O    -5.860000000    -0.229000000     2.396000000
H    -5.991000000     0.567000000     2.912000000
H    -4.916000000    -0.385000000     2.432000000
O     4.052000000    -0.283000000    -5.930000000
H     3.192000000    -0.641000000    -6.149000000
H     3.985000000    -0.047000000    -5.005000000
O     1.249000000     5.507000000     1.003000000
H     1.657000000     4.813000000     0.485000000
H     1.939000000     6.162000000     1.109000000
O    -3.326000000     1.532000000    -2.953000000
H    -2.787000000     1.856000000    -3.674000000
H    -4.227000000     1.667000000    -3.249000000
O     0.870000000     3.460000000     7.941000000
H     0.855000000     4.417000000     7.928000000
H     0.540000000     3.203000000     7.080000000
O    -3.522000000     1.706000000     3.784000000
H    -3.017000000     0.893000000     3.796000000
H    -3.206000000     2.195000000     4.544000000
O    -2.597000000    -4.826000000    -0.864000000
H    -2.265000000    -4.439000000    -1.673000000
H    -3.067000000    -4.113000000    -0.432000000
O     3.572000000    -0.590000000     2.905000000
H     3.414000000    -0.484000000     3.844000000
H     4.491000000    -0.849000000     2.845000000
O     3.037000000     3.524000000    -0.159000000
H     3.021000000     2.977000000    -0.945000000
H     2.910000000     2.909000000     0.563000000
O    -3.264000000    -1.154000000     3.204000000
H    -2.375000000    -0.805000000     3.267000000
H    -3.323000000    -1.790000000     3.917000000
O    -2.265000000    -0.988000000     7.034000000
H    -3.014000000    -0.395000000     7.095000000
H    -2.441000000    -1.516000000     6.255000000
O    -3.131000000     2.949000000     6.145000000
H    -3.378000000     3.872000000     6.203000000
H    -3.537000000     2.543000000     6.911000000
