161
-3021.70682
C     0.536000000     1.046000000     0.984000000
H     0.961000000     1.914000000     1.481000000
C     0.439000000     1.122000000    -0.396000000
H     0.785000000     2.082000000    -0.771000000
C    -0.058000000     0.117000000    -1.220000000
C     0.074000000     0.182000000    -2.712000000
H     0.535000000    -0.700000000    -3.161000000
H    -0.935000000     0.305000000    -3.111000000
H     0.598000000     1.092000000    -3.012000000
C    -0.451000000    -1.065000000    -0.637000000
H    -0.826000000    -1.895000000    -1.231000000
C    -0.410000000    -1.157000000     0.715000000
H    -0.781000000    -2.021000000     1.261000000
C     0.001000000    -0.108000000     1.550000000
C    -0.109000000    -0.296000000     3.031000000
O    -0.823000000    -1.087000000     3.546000000
O     0.465000000     0.465000000     3.685000000
O     0.637000000    -5.508000000     2.479000000
H     0.548000000    -4.667000000     2.927000000
H     0.269000000    -6.146000000     3.090000000
O     2.999000000     2.312000000    -3.672000000
H     3.356000000     3.162000000    -3.929000000
H     2.269000000     2.167000000    -4.274000000
O    -2.411000000    -2.374000000    -3.354000000
H    -1.944000000    -1.716000000    -3.869000000
H    -2.863000000    -2.910000000    -4.005000000
O    -1.204000000     2.555000000     3.665000000
H    -0.609000000     3.290000000     3.518000000
H    -0.629000000     1.816000000     3.860000000
O     2.505000000    -2.231000000     0.122000000
H     1.982000000    -2.668000000     0.793000000
H     1.897000000    -1.624000000    -0.300000000
O    -3.217000000     0.127000000    -0.315000000
H    -3.212000000     0.374000000     0.610000000
H    -2.448000000    -0.433000000    -0.418000000
O    -1.392000000     3.762000000    -3.217000000
H    -1.000000000     4.184000000    -3.981000000
H    -1.050000000     2.868000000    -3.234000000
O    -4.527000000    -0.998000000     6.167000000
H    -4.224000000    -1.237000000     7.043000000
H    -4.031000000    -1.566000000     5.579000000
O     0.198000000    -0.109000000     6.165000000
H     0.283000000     0.063000000     5.228000000
H    -0.607000000     0.341000000     6.420000000
O     3.129000000     1.347000000     6.892000000
H     2.332000000     1.000000000     7.293000000
H     3.279000000     0.784000000     6.133000000
O     5.765000000     3.412000000    -1.762000000
H     5.547000000     2.498000000    -1.941000000
H     5.113000000     3.692000000    -1.118000000
O    -1.857000000    -6.231000000    -2.713000000
H    -1.380000000    -5.608000000    -3.262000000
H    -1.172000000    -6.732000000    -2.269000000
O     1.441000000     4.699000000     0.958000000
H     1.654000000     5.563000000     0.605000000
H     0.606000000     4.473000000     0.548000000
O    -0.479000000     3.612000000     6.334000000
H    -0.877000000     2.899000000     5.833000000
H     0.427000000     3.644000000     6.026000000
O     1.895000000    -6.480000000     0.366000000
H     1.559000000    -6.180000000     1.210000000
H     2.723000000    -6.012000000     0.258000000
O    -2.753000000    -2.673000000     4.761000000
H    -2.488000000    -1.891000000     4.275000000
H    -2.697000000    -3.382000000     4.121000000
O     5.306000000     3.247000000     1.302000000
H     6.191000000     2.891000000     1.384000000
H     4.767000000     2.494000000     1.057000000
O     3.056000000     4.150000000     2.903000000
H     2.455000000     4.550000000     2.275000000
H     3.598000000     3.563000000     2.376000000
O    -1.621000000     2.380000000    -5.879000000
H    -1.975000000     2.696000000    -6.711000000
H    -2.265000000     1.741000000    -5.573000000
O     2.215000000    -2.609000000    -8.253000000
H     1.359000000    -2.454000000    -8.652000000
H     2.184000000    -2.129000000    -7.426000000
O     3.013000000    -2.242000000     3.522000000
H     3.582000000    -2.593000000     2.836000000
H     3.579000000    -2.177000000     4.292000000
O    -4.329000000    -2.189000000    -1.433000000
H    -3.674000000    -2.462000000    -2.075000000
H    -3.942000000    -1.424000000    -1.007000000
O     1.638000000    -0.957000000    -6.216000000
H     1.176000000    -0.124000000    -6.118000000
H     2.399000000    -0.878000000    -5.641000000
O    -3.506000000     3.717000000     0.228000000
H    -4.172000000     3.337000000    -0.346000000
H    -3.618000000     3.260000000     1.061000000
O     0.951000000     1.685000000    -5.637000000
H     1.253000000     1.914000000    -6.516000000
H     0.037000000     1.969000000    -5.617000000
O    -3.914000000     0.275000000    -6.069000000
H    -4.544000000    -0.365000000    -5.737000000
H    -4.395000000     1.103000000    -6.076000000
O     3.894000000    -3.204000000    -4.066000000
H     4.095000000    -3.187000000    -3.130000000
H     3.856000000    -2.281000000    -4.319000000
O     3.954000000    -0.622000000    -4.803000000
H     4.415000000    -0.430000000    -5.619000000
H     3.888000000     0.225000000    -4.361000000
O     4.262000000    -3.926000000    -1.437000000
H     4.772000000    -4.307000000    -0.722000000
H     3.641000000    -3.341000000    -1.003000000
O     4.408000000    -1.074000000     6.072000000
H     4.242000000    -1.520000000     6.902000000
H     5.335000000    -1.234000000     5.895000000
O    -0.745000000    -1.505000000    -5.476000000
H    -0.899000000    -1.520000000    -6.421000000
H     0.200000000    -1.384000000    -5.390000000
O    -1.150000000     5.056000000    -0.674000000
H    -1.892000000     4.514000000    -0.407000000
H    -0.919000000     4.734000000    -1.545000000
O     4.160000000     1.038000000    -1.696000000
H     3.633000000     0.941000000    -0.903000000
H     3.587000000     1.498000000    -2.310000000
O    -1.977000000    -0.698000000    -7.755000000
H    -2.690000000    -0.336000000    -7.229000000
H    -1.775000000    -0.010000000    -8.390000000
O    -3.648000000     2.384000000     2.684000000
H    -4.232000000     2.441000000     3.440000000
H    -2.770000000     2.490000000     3.050000000
O    -5.322000000    -2.894000000     1.985000000
H    -4.928000000    -3.533000000     1.391000000
H    -4.694000000    -2.172000000     2.010000000
O     1.799000000    -4.385000000    -5.935000000
H     2.363000000    -3.986000000    -5.272000000
H     2.018000000    -3.924000000    -6.744000000
O     2.985000000     0.543000000     4.002000000
H     2.027000000     0.542000000     4.002000000
H     3.225000000    -0.383000000     4.038000000
O    -4.083000000     4.756000000    -2.713000000
H    -4.205000000     4.762000000    -3.662000000
H    -3.150000000     4.580000000    -2.592000000
O     1.541000000    -1.741000000     7.787000000
H     2.016000000    -1.289000000     8.485000000
H     1.292000000    -1.045000000     7.178000000
O    -5.152000000    -4.716000000    -0.232000000
H    -4.902000000    -5.440000000    -0.807000000
H    -4.785000000    -3.939000000    -0.654000000
O     0.790000000    -3.620000000     4.505000000
H     0.122000000    -2.945000000     4.628000000
H     1.428000000    -3.221000000     3.913000000
O    -2.945000000    -5.356000000     3.809000000
H    -3.444000000    -5.818000000     3.135000000
H    -2.082000000    -5.770000000     3.794000000
O     3.581000000     0.627000000     1.116000000
H     3.684000000     0.652000000     2.067000000
H     3.231000000    -0.246000000     0.936000000
O    -3.662000000    -0.369000000     2.558000000
H    -2.903000000    -0.133000000     3.091000000
H    -4.363000000     0.200000000     2.875000000
O    -1.216000000    -3.745000000     7.020000000
H    -0.515000000    -3.095000000     7.064000000
H    -1.798000000    -3.422000000     6.331000000
O    -2.401000000     0.946000000     6.516000000
H    -2.837000000     1.569000000     7.097000000
H    -3.112000000     0.414000000     6.158000000
O     2.063000000     3.362000000     5.271000000
H     2.356000000     3.608000000     4.393000000
H     2.681000000     2.686000000     5.549000000
