161
-3056.46389
C     0.493000000     0.856000000     1.064000000
H     0.968000000     1.407000000     1.872000000
C     1.260000000     0.412000000     0.004000000
H     2.307000000     0.692000000     0.084000000
C     0.656000000    -0.361000000    -1.000000000
C     1.447000000    -0.874000000    -2.178000000
H     2.027000000    -0.049000000    -2.598000000
H     2.083000000    -1.659000000    -1.765000000
H     0.752000000    -1.279000000    -2.917000000
C    -0.686000000    -0.739000000    -0.838000000
H    -1.127000000    -1.432000000    -1.551000000
C    -1.406000000    -0.286000000     0.262000000
H    -2.465000000    -0.526000000     0.219000000
C    -0.856000000     0.476000000     1.225000000
C    -1.601000000     1.001000000     2.402000000
O    -2.770000000     0.635000000     2.502000000
O    -1.074000000     1.721000000     3.208000000
O    -3.970000000    -1.710000000     2.578000000
H    -3.429000000    -0.924000000     2.497000000
H    -3.447000000    -2.308000000     3.111000000
O    -0.824000000     2.405000000    -1.472000000
H    -0.474000000     2.133000000    -0.624000000
H    -0.075000000     2.356000000    -2.067000000
O    -0.182000000    -0.103000000    -5.862000000
H    -0.904000000    -0.717000000    -5.996000000
H    -0.370000000     0.309000000    -5.019000000
O    -4.096000000     4.475000000     3.422000000
H    -3.154000000     4.404000000     3.268000000
H    -4.261000000     3.900000000     4.170000000
O     5.115000000    -0.083000000     0.179000000
H     5.074000000    -0.859000000     0.738000000
H     4.573000000    -0.304000000    -0.578000000
O     2.870000000     4.579000000     3.802000000
H     3.779000000     4.278000000     3.815000000
H     2.353000000     3.786000000     3.947000000
O     4.085000000     1.682000000     1.820000000
H     4.352000000     2.598000000     1.754000000
H     4.592000000     1.236000000     1.141000000
O     3.953000000    -1.434000000    -5.245000000
H     3.060000000    -1.715000000    -5.445000000
H     4.414000000    -1.489000000    -6.082000000
O    -1.588000000     2.961000000     5.964000000
H    -1.343000000     2.663000000     5.087000000
H    -1.206000000     3.836000000     6.035000000
O    -2.663000000     4.916000000    -0.972000000
H    -2.246000000     4.066000000    -1.111000000
H    -1.950000000     5.549000000    -1.053000000
O     4.944000000    -1.211000000    -2.265000000
H     4.530000000    -1.410000000    -3.105000000
H     5.873000000    -1.111000000    -2.473000000
O     7.585000000    -0.822000000     1.023000000
H     6.777000000    -0.532000000     0.601000000
H     7.383000000    -0.816000000     1.959000000
O    -2.362000000    -3.644000000    -2.880000000
H    -3.172000000    -4.048000000    -3.192000000
H    -1.994000000    -4.285000000    -2.271000000
O    -2.715000000    -3.124000000     4.690000000
H    -2.812000000    -2.846000000     5.601000000
H    -2.028000000    -3.790000000     4.715000000
O     1.425000000    -3.614000000     0.518000000
H     1.772000000    -3.920000000     1.356000000
H     1.992000000    -2.881000000     0.278000000
O    -1.409000000     4.277000000     2.550000000
H    -1.078000000     3.398000000     2.736000000
H    -0.969000000     4.532000000     1.739000000
O    -7.649000000    -1.969000000    -0.966000000
H    -7.922000000    -1.846000000    -0.056000000
H    -6.831000000    -1.477000000    -1.039000000
O    -5.026000000    -0.743000000    -0.742000000
H    -5.138000000     0.021000000    -0.176000000
H    -5.066000000    -0.391000000    -1.631000000
O    -6.251000000    -3.261000000     2.788000000
H    -5.389000000    -2.844000000     2.803000000
H    -6.199000000    -3.894000000     2.072000000
O     2.949000000     5.281000000     1.093000000
H     3.102000000     5.237000000     2.037000000
H     3.712000000     4.850000000     0.706000000
O    -0.361000000     6.784000000     3.513000000
H     0.206000000     6.617000000     4.266000000
H    -0.634000000     5.914000000     3.221000000
O    -5.136000000     4.073000000    -0.171000000
H    -4.249000000     4.426000000    -0.241000000
H    -5.125000000     3.554000000     0.633000000
O    -2.220000000    -1.591000000    -4.864000000
H    -2.034000000    -0.777000000    -4.395000000
H    -2.298000000    -2.251000000    -4.175000000
O     2.142000000     4.545000000    -2.591000000
H     2.798000000     4.250000000    -1.960000000
H     1.495000000     3.840000000    -2.612000000
O     3.280000000     0.407000000     6.135000000
H     3.418000000     1.296000000     5.806000000
H     2.733000000    -0.012000000     5.471000000
O    -3.851000000    -3.342000000    -0.357000000
H    -2.995000000    -3.041000000    -0.052000000
H    -4.347000000    -2.538000000    -0.512000000
O    -3.927000000     1.725000000     5.140000000
H    -3.657000000     1.155000000     4.420000000
H    -3.112000000     2.118000000     5.453000000
O    -2.371000000     0.743000000    -3.071000000
H    -2.582000000     1.485000000    -3.637000000
H    -1.892000000     1.130000000    -2.337000000
O     0.301000000    -5.589000000    -1.211000000
H     0.895000000    -4.929000000    -0.854000000
H     0.848000000    -6.367000000    -1.324000000
O    -0.102000000    -4.150000000    -4.147000000
H     0.625000000    -4.249000000    -3.532000000
H    -0.748000000    -3.627000000    -3.671000000
O     5.247000000     3.936000000    -0.277000000
H     6.012000000     3.526000000     0.124000000
H     5.611000000     4.588000000    -0.877000000
O    -1.322000000    -3.480000000     1.311000000
H    -1.230000000    -2.843000000     2.020000000
H    -0.427000000    -3.631000000     1.008000000
O    -6.016000000     1.455000000     6.934000000
H    -5.402000000     1.554000000     6.206000000
H    -6.718000000     0.908000000     6.582000000
O     4.418000000    -5.248000000    -2.116000000
H     5.237000000    -5.494000000    -1.686000000
H     4.692000000    -4.795000000    -2.913000000
O     4.788000000    -2.584000000     0.859000000
H     4.840000000    -3.141000000     1.636000000
H     5.145000000    -3.123000000     0.154000000
O    -5.185000000     0.128000000    -3.242000000
H    -4.273000000     0.104000000    -3.534000000
H    -5.419000000     1.056000000    -3.265000000
O     1.585000000    -2.476000000    -5.909000000
H     1.302000000    -3.304000000    -5.521000000
H     0.847000000    -2.203000000    -6.454000000
O     4.481000000     3.274000000    -5.143000000
H     3.644000000     2.985000000    -4.780000000
H     4.478000000     2.949000000    -6.043000000
O    -6.368000000     0.233000000     3.042000000
H    -6.562000000     0.330000000     3.974000000
H    -5.613000000    -0.355000000     3.015000000
O    -3.415000000    -1.603000000     6.912000000
H    -3.921000000    -1.112000000     6.265000000
H    -3.477000000    -1.081000000     7.712000000
O     1.214000000     2.387000000     4.433000000
H     0.374000000     2.188000000     4.019000000
H     1.055000000     2.267000000     5.369000000
O    -0.209000000    -0.268000000     5.495000000
H     0.038000000    -0.803000000     4.741000000
H    -0.749000000     0.431000000     5.125000000
O     0.311000000    -1.952000000     3.101000000
H     0.597000000    -1.423000000     2.356000000
H     1.063000000    -2.509000000     3.302000000
O     2.491000000     1.060000000    -5.579000000
H     3.256000000     0.552000000    -5.309000000
H     1.877000000     0.407000000    -5.915000000
O     2.516000000     0.242000000     3.471000000
H     1.950000000     0.979000000     3.700000000
H     3.083000000     0.581000000     2.779000000
O    -5.096000000     1.280000000     0.996000000
H    -4.248000000     1.169000000     1.426000000
H    -5.711000000     0.802000000     1.552000000
O     0.846000000     2.225000000    -3.626000000
H     0.240000000     2.607000000    -4.261000000
H     1.456000000     1.712000000    -4.156000000
O     0.428000000     4.627000000     0.596000000
H     0.174000000     5.107000000    -0.192000000
H     1.256000000     5.027000000     0.863000000
