161
-3051.14543
C    -0.371000000     0.966000000    -1.116000000
H    -0.626000000     1.572000000    -1.982000000
C     0.224000000    -0.313000000    -1.337000000
H     0.465000000    -0.645000000    -2.344000000
C     0.479000000    -1.161000000    -0.229000000
C     1.209000000    -2.458000000    -0.302000000
H     1.123000000    -2.957000000     0.665000000
H     0.796000000    -3.129000000    -1.057000000
H     2.247000000    -2.168000000    -0.481000000
C     0.222000000    -0.665000000     1.073000000
H     0.446000000    -1.332000000     1.901000000
C    -0.370000000     0.584000000     1.221000000
H    -0.530000000     0.923000000     2.241000000
C    -0.669000000     1.445000000     0.185000000
C    -1.345000000     2.764000000     0.451000000
O    -1.317000000     3.232000000     1.540000000
O    -1.984000000     3.334000000    -0.426000000
O    -0.643000000    -3.554000000     4.103000000
H    -0.842000000    -4.138000000     4.835000000
H     0.280000000    -3.720000000     3.908000000
O     6.099000000    -1.070000000    -0.088000000
H     5.450000000    -0.407000000     0.147000000
H     6.725000000    -0.607000000    -0.644000000
O    -4.597000000     5.615000000    -3.103000000
H    -3.861000000     6.227000000    -3.097000000
H    -4.971000000     5.698000000    -3.980000000
O    -2.879000000    -1.991000000     3.765000000
H    -2.060000000    -2.476000000     3.864000000
H    -3.229000000    -2.280000000     2.922000000
O     4.682000000     0.937000000     3.708000000
H     4.260000000     1.439000000     3.011000000
H     4.389000000     0.037000000     3.567000000
O     2.343000000     5.872000000     1.943000000
H     2.615000000     5.322000000     2.678000000
H     1.387000000     5.887000000     1.997000000
O     4.022000000     0.993000000     0.649000000
H     3.200000000     1.484000000     0.646000000
H     4.635000000     1.551000000     0.171000000
O     3.930000000    -1.373000000     3.184000000
H     3.189000000    -1.979000000     3.213000000
H     4.658000000    -1.902000000     2.858000000
O     0.339000000    -1.751000000    -4.973000000
H     0.144000000    -0.825000000    -4.831000000
H    -0.385000000    -2.068000000    -5.513000000
O    -0.285000000    -6.593000000     2.863000000
H    -0.316000000    -7.091000000     2.046000000
H     0.518000000    -6.888000000     3.292000000
O    -4.075000000    -3.588000000    -0.008000000
H    -3.271000000    -3.326000000     0.440000000
H    -4.779000000    -3.256000000     0.549000000
O    -4.813000000     7.567000000     0.007000000
H    -4.490000000     6.667000000    -0.020000000
H    -4.068000000     8.099000000    -0.273000000
O     2.187000000     3.265000000     0.624000000
H     1.311000000     3.293000000     0.237000000
H     2.053000000     3.520000000     1.536000000
O    -3.343000000     0.466000000     4.644000000
H    -3.151000000    -0.418000000     4.330000000
H    -3.312000000     1.011000000     3.857000000
O     0.579000000     7.529000000    -0.071000000
H     0.530000000     7.339000000     0.866000000
H     1.318000000     7.008000000    -0.383000000
O     1.407000000     5.448000000    -3.434000000
H     2.077000000     5.952000000    -2.972000000
H     0.661000000     5.434000000    -2.835000000
O     2.723000000    -5.610000000     1.454000000
H     3.290000000    -5.403000000     0.711000000
H     1.840000000    -5.410000000     1.144000000
O    -2.271000000     7.148000000    -2.989000000
H    -1.456000000     6.982000000    -2.515000000
H    -2.394000000     8.096000000    -2.930000000
O     1.910000000     2.275000000    -3.573000000
H     1.305000000     2.022000000    -4.270000000
H     1.856000000     3.230000000    -3.544000000
O    -6.106000000     3.918000000     1.938000000
H    -6.679000000     3.266000000     2.340000000
H    -6.208000000     3.779000000     0.996000000
O     0.723000000    -6.394000000    -1.561000000
H     0.770000000    -5.562000000    -2.031000000
H    -0.081000000    -6.334000000    -1.046000000
O     0.962000000     3.357000000     3.271000000
H     0.217000000     3.253000000     2.680000000
H     0.569000000     3.426000000     4.141000000
O     4.840000000    -5.018000000    -0.372000000
H     4.593000000    -4.962000000    -1.295000000
H     5.482000000    -5.727000000    -0.338000000
O    -3.148000000     3.360000000    -2.754000000
H    -2.812000000     3.464000000    -1.864000000
H    -3.641000000     4.164000000    -2.919000000
O     4.659000000    -3.832000000    -4.161000000
H     4.022000000    -4.243000000    -3.576000000
H     5.509000000    -4.134000000    -3.840000000
O     3.249000000    -2.100000000    -5.947000000
H     2.519000000    -2.083000000    -5.328000000
H     3.921000000    -2.625000000    -5.511000000
O    -5.906000000     4.633000000    -0.789000000
H    -5.277000000     4.690000000    -0.070000000
H    -5.431000000     4.968000000    -1.550000000
O     0.176000000    -4.224000000    -3.900000000
H     0.279000000    -3.361000000    -4.301000000
H    -0.101000000    -4.791000000    -4.620000000
O     2.173000000    -3.358000000     3.428000000
H     2.414000000    -4.147000000     2.941000000
H     2.362000000    -3.573000000     4.341000000
O    -3.067000000     6.833000000     2.959000000
H    -3.930000000     6.664000000     3.337000000
H    -2.552000000     7.184000000     3.686000000
O     6.025000000    -0.749000000    -3.370000000
H     6.288000000    -1.603000000    -3.028000000
H     5.095000000    -0.681000000    -3.156000000
O     3.152000000    -5.601000000    -3.020000000
H     2.261000000    -5.934000000    -2.915000000
H     3.699000000    -6.386000000    -3.048000000
O    -0.899000000     3.778000000    -4.705000000
H    -0.932000000     4.691000000    -4.992000000
H    -1.356000000     3.775000000    -3.864000000
O    -2.580000000     1.965000000     6.965000000
H    -3.190000000     2.487000000     7.486000000
H    -2.995000000     1.902000000     6.104000000
O    -4.357000000     0.777000000    -3.247000000
H    -5.040000000     1.274000000    -3.697000000
H    -3.643000000     1.404000000    -3.129000000
O    -4.069000000    -0.090000000     1.136000000
H    -3.936000000     0.795000000     1.478000000
H    -4.349000000     0.043000000     0.231000000
O    -0.621000000     5.825000000     1.843000000
H    -1.391000000     6.289000000     2.173000000
H    -0.876000000     4.902000000     1.853000000
O     3.409000000     0.202000000    -2.549000000
H     2.831000000    -0.163000000    -1.879000000
H     2.935000000     0.963000000    -2.886000000
O    -2.318000000    -6.891000000    -3.229000000
H    -1.989000000    -6.307000000    -3.913000000
H    -2.218000000    -6.390000000    -2.419000000
O     6.227000000    -3.241000000     1.614000000
H     5.603000000    -3.720000000     1.069000000
H     6.281000000    -2.374000000     1.210000000
O    -3.413000000    -1.076000000    -5.343000000
H    -3.172000000    -1.558000000    -4.552000000
H    -3.661000000    -0.207000000    -5.028000000
O    -0.617000000     5.272000000    -1.434000000
H    -0.396000000     5.597000000    -0.561000000
H    -1.083000000     4.452000000    -1.273000000
O    -1.827000000    -5.921000000    -0.499000000
H    -2.020000000    -5.003000000    -0.311000000
H    -2.673000000    -6.364000000    -0.425000000
O    -0.215000000     3.257000000     5.658000000
H    -0.479000000     4.014000000     6.182000000
H    -0.736000000     2.533000000     6.004000000
O    -0.296000000     0.901000000    -5.744000000
H    -0.558000000     0.571000000    -6.604000000
H    -1.057000000     1.393000000    -5.436000000
O    -1.914000000    -4.178000000     1.755000000
H    -1.865000000    -5.121000000     1.914000000
H    -1.436000000    -3.786000000     2.486000000
O    -3.657000000     5.210000000     0.594000000
H    -3.265000000     5.867000000     1.170000000
H    -2.950000000     4.587000000     0.425000000
O    -3.568000000     2.318000000     2.700000000
H    -4.070000000     3.040000000     2.322000000
H    -2.687000000     2.425000000     2.342000000
