161
-3022.84766
C    -1.241000000     0.836000000    -0.015000000
H    -2.143000000     1.433000000    -0.123000000
C    -1.046000000    -0.416000000    -0.666000000
H    -1.876000000    -0.777000000    -1.268000000
C     0.150000000    -1.127000000    -0.584000000
C     0.193000000    -2.511000000    -1.153000000
H     1.253000000    -2.767000000    -1.216000000
H    -0.461000000    -3.165000000    -0.573000000
H    -0.216000000    -2.529000000    -2.165000000
C     1.174000000    -0.495000000     0.074000000
H     2.118000000    -1.030000000     0.013000000
C     1.039000000     0.729000000     0.743000000
H     1.823000000     0.937000000     1.467000000
C    -0.180000000     1.451000000     0.694000000
C    -0.199000000     2.780000000     1.431000000
O     0.801000000     3.183000000     1.966000000
O    -1.197000000     3.474000000     1.382000000
O     6.654000000    -1.753000000     0.543000000
H     6.562000000    -0.801000000     0.595000000
H     5.806000000    -2.057000000     0.220000000
O     1.835000000    -5.451000000    -0.988000000
H     1.261000000    -5.059000000    -0.331000000
H     2.596000000    -5.753000000    -0.492000000
O     3.292000000    -0.693000000     5.088000000
H     2.890000000    -1.467000000     4.693000000
H     2.653000000    -0.396000000     5.735000000
O     5.564000000    -3.024000000     3.034000000
H     5.867000000    -2.171000000     2.722000000
H     4.707000000    -3.138000000     2.624000000
O     4.708000000     0.997000000    -2.089000000
H     4.653000000     1.231000000    -1.162000000
H     5.092000000     1.767000000    -2.508000000
O     2.229000000     4.480000000    -2.371000000
H     2.099000000     3.535000000    -2.287000000
H     2.865000000     4.572000000    -3.080000000
O     5.203000000    -0.056000000     3.217000000
H     4.788000000    -0.235000000     4.061000000
H     6.141000000    -0.140000000     3.388000000
O     3.238000000    -4.344000000    -3.001000000
H     2.705000000    -4.798000000    -2.349000000
H     3.211000000    -4.913000000    -3.771000000
O    -3.024000000     6.799000000    -1.279000000
H    -3.866000000     6.870000000    -1.728000000
H    -2.739000000     7.705000000    -1.158000000
O     3.147000000     2.890000000     0.874000000
H     3.249000000     3.378000000     0.057000000
H     2.265000000     3.107000000     1.175000000
O    -6.552000000    -1.921000000    -0.041000000
H    -5.688000000    -2.287000000     0.148000000
H    -6.376000000    -1.020000000    -0.310000000
O    -5.288000000     0.504000000    -0.964000000
H    -4.873000000     0.768000000    -1.785000000
H    -4.672000000     0.779000000    -0.285000000
O    -3.051000000    -3.551000000    -2.383000000
H    -2.614000000    -4.364000000    -2.128000000
H    -2.363000000    -3.029000000    -2.796000000
O     1.651000000    -2.458000000     3.672000000
H     0.770000000    -2.496000000     3.299000000
H     2.076000000    -3.258000000     3.363000000
O     5.435000000     1.183000000     0.875000000
H     4.821000000     1.897000000     1.046000000
H     5.316000000     0.583000000     1.611000000
O     0.177000000    -5.664000000     1.078000000
H    -0.247000000    -6.034000000     0.304000000
H     0.523000000    -6.424000000     1.547000000
O     2.388000000     6.273000000     5.607000000
H     2.143000000     5.908000000     4.757000000
H     1.599000000     6.185000000     6.142000000
O    -2.021000000     1.064000000     4.703000000
H    -2.056000000     0.441000000     5.429000000
H    -1.634000000     0.569000000     3.981000000
O    -2.136000000     6.150000000     4.778000000
H    -2.357000000     5.246000000     4.998000000
H    -2.176000000     6.182000000     3.822000000
O     1.498000000     7.653000000     1.616000000
H     1.299000000     6.838000000     2.078000000
H     0.772000000     7.765000000     1.003000000
O     0.491000000    -0.286000000    -5.308000000
H     1.002000000    -0.520000000    -6.083000000
H     1.144000000    -0.148000000    -4.623000000
O    -1.771000000    -1.771000000    -4.119000000
H    -1.236000000    -2.416000000    -4.582000000
H    -1.433000000    -0.925000000    -4.411000000
O     1.019000000     5.464000000     3.033000000
H     0.895000000     4.644000000     2.555000000
H     0.185000000     5.609000000     3.480000000
O    -2.945000000     4.103000000    -0.580000000
H    -2.271000000     3.892000000     0.066000000
H    -2.988000000     5.059000000    -0.577000000
O    -0.921000000    -5.332000000    -1.991000000
H    -0.028000000    -4.989000000    -1.983000000
H    -0.932000000    -5.954000000    -2.718000000
O    -0.087000000    -4.033000000    -5.081000000
H     0.120000000    -4.893000000    -4.716000000
H     0.748000000    -3.707000000    -5.415000000
O    -4.095000000    -0.776000000     2.981000000
H    -3.180000000    -0.623000000     3.218000000
H    -4.224000000    -0.266000000     2.181000000
O     0.809000000    -6.386000000    -4.316000000
H     0.423000000    -7.245000000    -4.487000000
H     1.716000000    -6.467000000    -4.611000000
O    -4.482000000    -1.239000000    -3.946000000
H    -3.596000000    -1.518000000    -4.179000000
H    -4.849000000    -1.983000000    -3.468000000
O    -0.547000000     3.023000000    -4.133000000
H    -0.599000000     2.106000000    -4.402000000
H    -0.045000000     3.005000000    -3.318000000
O     1.677000000     1.916000000    -1.961000000
H     1.410000000     1.585000000    -1.103000000
H     2.190000000     1.204000000    -2.343000000
O     3.787000000    -1.529000000    -5.761000000
H     3.823000000    -1.243000000    -4.848000000
H     4.014000000    -2.458000000    -5.731000000
O    -1.223000000    -0.624000000     2.674000000
H    -0.808000000    -0.399000000     1.841000000
H    -1.167000000    -1.578000000     2.719000000
O    -3.899000000    -2.301000000     0.156000000
H    -2.995000000    -2.058000000     0.358000000
H    -3.826000000    -2.885000000    -0.600000000
O     1.442000000     2.083000000     4.347000000
H     1.062000000     2.273000000     3.489000000
H     1.798000000     1.199000000     4.261000000
O    -5.580000000     3.604000000     2.859000000
H    -5.638000000     4.337000000     2.246000000
H    -4.680000000     3.635000000     3.184000000
O     5.587000000    -3.160000000    -3.455000000
H     4.733000000    -3.486000000    -3.170000000
H     5.609000000    -3.337000000    -4.395000000
O    -4.288000000     3.380000000    -2.776000000
H    -3.809000000     3.642000000    -1.989000000
H    -3.640000000     2.915000000    -3.306000000
O     0.439000000     3.437000000     6.837000000
H     0.542000000     2.793000000     6.137000000
H     1.335000000     3.681000000     7.071000000
O     2.973000000    -4.725000000     2.902000000
H     3.684000000    -5.181000000     3.353000000
H     2.724000000    -5.314000000     2.191000000
O    -0.741000000    -3.242000000     2.737000000
H    -0.243000000    -3.828000000     2.167000000
H    -1.295000000    -3.826000000     3.254000000
O    -1.961000000     6.226000000     2.006000000
H    -2.552000000     6.565000000     1.334000000
H    -1.609000000     5.419000000     1.630000000
O    -3.434000000     1.090000000    -3.936000000
H    -3.725000000     0.221000000    -3.660000000
H    -3.430000000     1.049000000    -4.892000000
O     2.659000000    -0.711000000    -3.070000000
H     2.684000000    -1.352000000    -2.359000000
H     3.435000000    -0.168000000    -2.930000000
O    -4.212000000     1.503000000     1.296000000
H    -4.935000000     1.896000000     1.785000000
H    -3.551000000     2.193000000     1.250000000
O    -2.829000000     3.643000000     3.449000000
H    -2.584000000     2.815000000     3.862000000
H    -2.295000000     3.682000000     2.656000000
O     3.925000000     3.689000000     3.844000000
H     4.316000000     4.261000000     3.183000000
H     2.983000000     3.748000000     3.684000000
O    -4.003000000    -6.299000000     0.973000000
H    -4.836000000    -6.320000000     1.444000000
H    -3.540000000    -5.545000000     1.339000000
