161
-3040.92856
C    -0.757000000     0.745000000    -0.983000000
H    -1.366000000     1.301000000    -1.691000000
C    -0.443000000    -0.568000000    -1.143000000
H    -0.717000000    -1.077000000    -2.063000000
C     0.244000000    -1.196000000    -0.106000000
C     0.663000000    -2.660000000    -0.185000000
H     1.260000000    -3.020000000     0.656000000
H    -0.234000000    -3.280000000    -0.240000000
H     1.237000000    -2.967000000    -1.062000000
C     0.660000000    -0.462000000     0.978000000
H     1.330000000    -0.904000000     1.711000000
C     0.326000000     0.934000000     1.142000000
H     0.655000000     1.505000000     2.007000000
C    -0.314000000     1.530000000     0.120000000
C    -0.706000000     2.986000000     0.226000000
O    -0.267000000     3.707000000     1.175000000
O    -1.564000000     3.429000000    -0.536000000
O     0.009000000     5.087000000     4.870000000
H    -0.440000000     5.133000000     4.026000000
H     0.877000000     5.453000000     4.700000000
O     2.523000000     4.144000000     2.014000000
H     2.999000000     4.650000000     1.356000000
H     1.639000000     4.057000000     1.657000000
O     1.863000000     6.765000000    -0.927000000
H     1.611000000     7.667000000    -0.729000000
H     1.075000000     6.251000000    -0.745000000
O    -4.940000000     4.253000000     2.715000000
H    -4.564000000     3.735000000     3.427000000
H    -5.099000000     3.620000000     2.015000000
O    -0.994000000     7.817000000     2.525000000
H    -1.336000000     6.943000000     2.338000000
H    -1.742000000     8.400000000     2.393000000
O    -2.062000000     5.010000000     2.553000000
H    -1.473000000     4.478000000     2.018000000
H    -2.940000000     4.760000000     2.265000000
O     1.473000000    -6.846000000    -2.395000000
H     2.244000000    -6.479000000    -2.826000000
H     0.808000000    -6.162000000    -2.471000000
O     3.847000000    -3.204000000    -2.044000000
H     3.779000000    -2.262000000    -2.202000000
H     3.519000000    -3.322000000    -1.153000000
O     3.989000000    -3.024000000     1.049000000
H     3.861000000    -3.083000000     1.996000000
H     4.010000000    -2.084000000     0.869000000
O     4.054000000    -0.295000000     1.639000000
H     4.564000000     0.484000000     1.861000000
H     3.501000000    -0.445000000     2.406000000
O    -3.232000000     7.354000000    -0.027000000
H    -3.664000000     6.512000000     0.115000000
H    -3.747000000     7.977000000     0.485000000
O     1.887000000     3.967000000    -2.508000000
H     1.598000000     4.112000000    -3.409000000
H     1.789000000     3.024000000    -2.373000000
O    -4.343000000     3.217000000    -4.275000000
H    -4.027000000     2.384000000    -4.624000000
H    -3.565000000     3.631000000    -3.902000000
O    -3.272000000    -3.117000000    -2.945000000
H    -3.840000000    -3.110000000    -2.174000000
H    -3.764000000    -3.613000000    -3.600000000
O    -5.445000000    -2.801000000     1.346000000
H    -5.260000000    -1.863000000     1.383000000
H    -4.692000000    -3.176000000     0.890000000
O     3.926000000     0.111000000    -1.160000000
H     3.630000000     0.088000000    -0.250000000
H     4.803000000     0.493000000    -1.116000000
O     1.370000000    -7.326000000     0.357000000
H     1.178000000    -7.458000000    -0.572000000
H     2.160000000    -6.786000000     0.364000000
O     0.695000000    -1.432000000     4.878000000
H     0.609000000    -1.349000000     5.828000000
H    -0.137000000    -1.108000000     4.534000000
O    -1.307000000    -5.673000000     0.270000000
H    -1.324000000    -5.836000000     1.213000000
H    -0.615000000    -6.247000000    -0.060000000
O    -3.664000000     2.615000000     4.506000000
H    -2.962000000     1.965000000     4.540000000
H    -3.859000000     2.806000000     5.423000000
O     4.058000000     4.821000000     4.112000000
H     4.985000000     4.762000000     3.881000000
H     3.600000000     4.419000000     3.374000000
O     2.519000000    -1.505000000    -5.217000000
H     1.926000000    -2.255000000    -5.178000000
H     3.393000000    -1.893000000    -5.261000000
O    -1.511000000    -2.028000000    -5.269000000
H    -0.765000000    -2.609000000    -5.418000000
H    -2.058000000    -2.497000000    -4.640000000
O    -0.771000000     6.033000000    -0.863000000
H    -1.315000000     6.319000000    -0.129000000
H    -0.770000000     5.078000000    -0.801000000
O    -2.051000000     3.903000000    -3.231000000
H    -1.986000000     3.990000000    -2.280000000
H    -1.612000000     3.075000000    -3.427000000
O     1.685000000     2.206000000     4.484000000
H     1.545000000     2.843000000     3.782000000
H     2.029000000     2.724000000     5.212000000
O     2.194000000    -3.154000000     3.475000000
H     1.725000000    -3.813000000     3.987000000
H     1.570000000    -2.433000000     3.385000000
O     3.259000000    -5.071000000    -3.890000000
H     3.743000000    -4.731000000    -4.643000000
H     3.559000000    -4.538000000    -3.153000000
O    -1.013000000    -5.045000000    -2.864000000
H    -1.295000000    -4.468000000    -2.154000000
H    -1.826000000    -5.398000000    -3.224000000
O    -4.438000000     0.121000000    -0.140000000
H    -4.248000000    -0.436000000    -0.894000000
H    -3.806000000    -0.152000000     0.525000000
O     3.931000000    -5.710000000     0.355000000
H     4.652000000    -5.760000000    -0.273000000
H     3.819000000    -4.773000000     0.516000000
O    -6.199000000     4.031000000    -2.070000000
H    -6.569000000     3.392000000    -1.460000000
H    -5.268000000     3.810000000    -2.112000000
O     1.796000000     1.293000000    -2.617000000
H     1.748000000     0.643000000    -1.916000000
H     2.637000000     1.125000000    -3.042000000
O    -0.929000000     1.263000000     6.727000000
H    -0.826000000     0.348000000     6.988000000
H    -0.730000000     1.268000000     5.790000000
O    -0.487000000     1.699000000    -4.212000000
H    -0.147000000     1.730000000    -5.106000000
H     0.294000000     1.713000000    -3.658000000
O     5.058000000    -2.092000000    -4.453000000
H     4.862000000    -2.823000000    -3.867000000
H     5.925000000    -2.293000000    -4.805000000
O    -2.361000000    -0.795000000     1.739000000
H    -1.568000000    -0.461000000     1.321000000
H    -2.114000000    -1.661000000     2.063000000
O    -3.175000000    -3.467000000    -0.014000000
H    -2.962000000    -4.362000000    -0.277000000
H    -2.331000000    -3.081000000     0.222000000
O     1.864000000    -7.340000000     2.994000000
H     1.736000000    -7.568000000     2.073000000
H     1.281000000    -6.595000000     3.140000000
O    -1.110000000    -3.166000000     2.921000000
H    -1.405000000    -4.033000000     2.640000000
H    -0.945000000    -3.262000000     3.859000000
O    -4.103000000     4.560000000    -0.399000000
H    -4.516000000     3.882000000     0.135000000
H    -3.191000000     4.278000000    -0.479000000
O    -2.483000000     0.620000000    -5.703000000
H    -2.247000000    -0.308000000    -5.695000000
H    -1.900000000     1.021000000    -5.058000000
O     0.868000000    -4.119000000    -4.841000000
H     0.173000000    -4.357000000    -4.227000000
H     1.678000000    -4.354000000    -4.389000000
O    -5.827000000     2.521000000     0.568000000
H    -6.759000000     2.410000000     0.383000000
H    -5.442000000     1.665000000     0.382000000
O    -2.582000000     0.184000000     4.282000000
H    -3.358000000    -0.119000000     4.753000000
H    -2.634000000    -0.251000000     3.431000000
O     3.186000000    -0.143000000     4.371000000
H     2.924000000     0.752000000     4.585000000
H     2.524000000    -0.693000000     4.791000000
O    -3.648000000    -7.240000000    -0.562000000
H    -2.862000000    -6.695000000    -0.528000000
H    -3.687000000    -7.658000000     0.298000000
O    -0.969000000     6.313000000    -3.755000000
H    -1.475000000     5.508000000    -3.648000000
H    -0.625000000     6.497000000    -2.881000000
