161
-3019.92608
C    -0.722000000     1.216000000    -0.341000000
H    -1.331000000     2.065000000    -0.642000000
C     0.122000000     0.472000000    -1.158000000
H     0.324000000     0.750000000    -2.190000000
C     0.717000000    -0.692000000    -0.727000000
C     1.561000000    -1.434000000    -1.757000000
H     2.311000000    -0.753000000    -2.166000000
H     1.997000000    -2.329000000    -1.309000000
H     0.833000000    -1.599000000    -2.554000000
C     0.598000000    -1.063000000     0.620000000
H     1.108000000    -1.946000000     0.998000000
C    -0.226000000    -0.277000000     1.434000000
H    -0.251000000    -0.606000000     2.470000000
C    -0.874000000     0.849000000     0.972000000
C    -1.798000000     1.602000000     1.896000000
O    -2.054000000     1.114000000     2.988000000
O    -2.312000000     2.637000000     1.458000000
O     2.124000000    -3.191000000     3.948000000
H     3.022000000    -2.962000000     4.191000000
H     1.578000000    -2.637000000     4.506000000
O     0.558000000     3.173000000    -7.074000000
H     0.598000000     2.337000000    -6.611000000
H     1.446000000     3.306000000    -7.405000000
O     0.902000000     4.934000000    -0.865000000
H     1.123000000     5.854000000    -1.011000000
H     0.764000000     4.579000000    -1.743000000
O     2.133000000     3.991000000     1.369000000
H     1.674000000     4.273000000     0.579000000
H     1.945000000     4.674000000     2.013000000
O    -3.499000000     4.069000000     4.135000000
H    -4.353000000     3.644000000     4.212000000
H    -2.994000000     3.490000000     3.565000000
O     6.000000000    -4.824000000    -2.095000000
H     5.470000000    -4.332000000    -1.468000000
H     5.371000000    -5.152000000    -2.737000000
O    -0.443000000     2.232000000     4.634000000
H    -1.142000000     1.857000000     4.097000000
H     0.319000000     2.249000000     4.055000000
O     4.663000000    -0.554000000    -6.080000000
H     4.634000000     0.302000000    -6.508000000
H     3.752000000    -0.736000000    -5.848000000
O     0.630000000     6.179000000     2.377000000
H     0.096000000     6.763000000     1.837000000
H     0.016000000     5.813000000     3.013000000
O     3.122000000    -4.839000000     0.645000000
H     3.764000000    -5.511000000     0.415000000
H     2.329000000    -5.094000000     0.174000000
O    -1.341000000     2.325000000     7.168000000
H    -0.703000000     2.350000000     6.454000000
H    -2.190000000     2.401000000     6.733000000
O     1.385000000    -4.292000000    -3.820000000
H     0.871000000    -3.513000000    -3.612000000
H     0.891000000    -4.727000000    -4.515000000
O     4.154000000    -5.289000000     3.023000000
H     3.505000000    -5.027000000     2.370000000
H     4.367000000    -4.478000000     3.486000000
O    -5.942000000     4.874000000     0.444000000
H    -6.635000000     4.279000000     0.731000000
H    -5.399000000     4.344000000    -0.140000000
O     1.142000000    -5.537000000    -1.009000000
H     0.937000000    -6.388000000    -1.397000000
H     0.505000000    -4.937000000    -1.397000000
O    -5.881000000     3.060000000     3.709000000
H    -6.571000000     2.434000000     3.926000000
H    -5.596000000     2.808000000     2.831000000
O    -0.349000000    -0.787000000    -4.786000000
H    -0.592000000    -0.611000000    -5.695000000
H    -0.404000000     0.066000000    -4.354000000
O    -1.654000000    -3.933000000    -1.386000000
H    -2.031000000    -3.076000000    -1.189000000
H    -1.642000000    -3.977000000    -2.342000000
O    -2.803000000     3.995000000    -4.085000000
H    -3.674000000     4.322000000    -3.855000000
H    -2.458000000     4.645000000    -4.697000000
O     2.022000000     1.954000000     3.386000000
H     2.054000000     2.396000000     2.537000000
H     2.831000000     1.444000000     3.420000000
O    -1.662000000     5.096000000     0.333000000
H    -0.760000000     4.858000000     0.120000000
H    -2.008000000     4.334000000     0.798000000
O     2.498000000     1.214000000     6.002000000
H     1.627000000     1.109000000     5.620000000
H     3.094000000     0.862000000     5.340000000
O    -3.888000000    -2.064000000     0.065000000
H    -3.839000000    -1.496000000     0.833000000
H    -4.277000000    -1.515000000    -0.616000000
O    -3.738000000    -0.923000000     2.988000000
H    -3.024000000    -1.559000000     3.010000000
H    -3.307000000    -0.083000000     2.828000000
O    -1.706000000     6.075000000     4.723000000
H    -1.395000000     5.843000000     5.598000000
H    -2.480000000     5.528000000     4.591000000
O    -4.826000000    -0.099000000    -2.142000000
H    -3.990000000     0.310000000    -2.368000000
H    -4.847000000    -0.903000000    -2.661000000
O    -2.772000000     7.282000000     2.678000000
H    -3.433000000     6.619000000     2.479000000
H    -2.339000000     6.960000000     3.468000000
O    -1.235000000    -3.274000000    -4.258000000
H    -0.999000000    -3.758000000    -5.049000000
H    -1.044000000    -2.360000000    -4.470000000
O     3.886000000    -5.120000000    -3.758000000
H     3.844000000    -6.053000000    -3.965000000
H     2.973000000    -4.863000000    -3.626000000
O     3.804000000     2.613000000    -0.479000000
H     3.321000000     3.061000000     0.215000000
H     3.837000000     1.699000000    -0.198000000
O    -5.331000000     6.042000000     2.809000000
H    -5.245000000     5.197000000     3.252000000
H    -5.512000000     5.817000000     1.897000000
O    -5.113000000     2.187000000     1.362000000
H    -5.422000000     2.147000000     0.457000000
H    -4.161000000     2.253000000     1.288000000
O    -1.886000000    -2.731000000     2.176000000
H    -1.463000000    -2.622000000     1.325000000
H    -2.449000000    -3.498000000     2.067000000
O     2.625000000     3.253000000    -2.822000000
H     3.060000000     3.054000000    -1.993000000
H     2.621000000     4.209000000    -2.868000000
O     3.443000000    -0.098000000     0.961000000
H     2.535000000    -0.325000000     0.762000000
H     3.839000000    -0.920000000     1.249000000
O     4.218000000     0.099000000     4.012000000
H     4.306000000    -0.230000000     3.117000000
H     4.715000000    -0.521000000     4.545000000
O    -0.153000000     1.889000000    -4.309000000
H    -0.282000000     2.575000000    -4.964000000
H     0.673000000     2.117000000    -3.883000000
O     2.095000000    -1.553000000    -5.525000000
H     1.842000000    -2.439000000    -5.787000000
H     1.303000000    -1.184000000    -5.134000000
O     0.518000000    -5.430000000     1.996000000
H     1.203000000    -4.768000000     1.905000000
H     0.575000000    -5.945000000     1.191000000
O     4.669000000    -2.376000000     1.979000000
H     4.654000000    -2.835000000     2.818000000
H     5.364000000    -2.807000000     1.482000000
O    -4.832000000     2.937000000    -1.261000000
H    -5.303000000     3.246000000    -2.035000000
H    -4.072000000     2.473000000    -1.613000000
O    -0.907000000    -3.039000000     4.718000000
H    -1.055000000    -2.836000000     3.794000000
H    -1.074000000    -2.214000000     5.174000000
O    -2.844000000     1.529000000    -2.931000000
H    -1.980000000     1.124000000    -2.861000000
H    -2.672000000     2.400000000    -3.287000000
O    -1.904000000    -0.508000000     7.135000000
H    -1.545000000     0.311000000     6.794000000
H    -1.156000000    -1.105000000     7.162000000
O    -2.364000000    -5.361000000     1.039000000
H    -2.212000000    -5.191000000     0.109000000
H    -1.564000000    -5.062000000     1.471000000
O    -4.435000000    -1.016000000     5.957000000
H    -4.023000000    -1.033000000     5.093000000
H    -3.732000000    -0.755000000     6.552000000
O    -6.542000000    -1.712000000     3.130000000
H    -5.758000000    -1.212000000     3.357000000
H    -6.239000000    -2.618000000     3.068000000
O    -3.082000000     5.955000000    -1.835000000
H    -2.835000000     5.449000000    -2.609000000
H    -2.413000000     5.739000000    -1.185000000
