161
-3000.46262
C    -0.714000000     1.059000000    -0.687000000
H    -1.406000000     1.714000000    -1.212000000
C     0.031000000     0.090000000    -1.343000000
H     0.053000000    -0.036000000    -2.422000000
C     0.812000000    -0.809000000    -0.524000000
C     1.472000000    -1.953000000    -1.225000000
H     2.489000000    -2.056000000    -0.843000000
H     0.814000000    -2.815000000    -1.090000000
H     1.361000000    -1.787000000    -2.299000000
C     0.652000000    -0.752000000     0.858000000
H     0.951000000    -1.580000000     1.495000000
C    -0.001000000     0.302000000     1.475000000
H    -0.205000000     0.304000000     2.542000000
C    -0.692000000     1.226000000     0.697000000
C    -1.582000000     2.154000000     1.366000000
O    -1.758000000     2.046000000     2.532000000
O    -2.280000000     2.889000000     0.680000000
O     1.715000000    -1.804000000     4.584000000
H     1.921000000    -2.095000000     5.472000000
H     2.171000000    -2.425000000     4.016000000
O     0.309000000     4.244000000    -2.689000000
H     0.287000000     3.290000000    -2.756000000
H     1.178000000     4.487000000    -3.007000000
O     5.449000000    -1.824000000    -0.066000000
H     4.667000000    -1.986000000    -0.593000000
H     5.136000000    -1.842000000     0.839000000
O    -2.529000000     4.768000000     3.194000000
H    -1.687000000     5.208000000     3.310000000
H    -2.305000000     3.922000000     2.807000000
O     7.590000000    -3.268000000     0.857000000
H     7.882000000    -3.654000000     0.032000000
H     6.820000000    -2.751000000     0.621000000
O     0.160000000     4.881000000     3.432000000
H     0.179000000     4.428000000     4.275000000
H     0.957000000     4.592000000     2.987000000
O    -2.374000000    -3.526000000    -2.368000000
H    -2.921000000    -4.029000000    -2.971000000
H    -1.643000000    -3.221000000    -2.906000000
O    -5.507000000     3.370000000     2.878000000
H    -5.416000000     2.653000000     3.506000000
H    -4.625000000     3.492000000     2.525000000
O    -1.439000000    -0.933000000    -6.183000000
H    -2.287000000    -1.346000000    -6.346000000
H    -1.128000000    -0.672000000    -7.050000000
O     4.775000000    -4.793000000     0.746000000
H     5.118000000    -5.674000000     0.597000000
H     4.555000000    -4.470000000    -0.128000000
O    -1.249000000     2.716000000     5.240000000
H    -1.503000000     2.393000000     4.375000000
H    -2.077000000     2.829000000     5.706000000
O     7.238000000    -0.435000000    -1.668000000
H     7.314000000     0.442000000    -1.292000000
H     6.732000000    -0.929000000    -1.022000000
O     3.667000000    -4.737000000    -1.651000000
H     3.125000000    -4.530000000    -2.412000000
H     3.859000000    -5.670000000    -1.740000000
O     0.487000000    -6.612000000    -3.677000000
H     1.040000000    -7.372000000    -3.858000000
H     0.543000000    -6.081000000    -4.471000000
O    -6.553000000     3.591000000     0.204000000
H    -5.747000000     3.319000000    -0.236000000
H    -6.268000000     3.865000000     1.076000000
O     2.022000000    -3.150000000    -5.399000000
H     2.133000000    -3.077000000    -6.347000000
H     2.354000000    -2.321000000    -5.054000000
O    -2.751000000    -1.728000000    -0.368000000
H    -2.185000000    -1.202000000    -0.933000000
H    -2.759000000    -2.594000000    -0.776000000
O    -1.902000000     5.339000000    -3.723000000
H    -1.640000000     5.872000000    -4.473000000
H    -1.082000000     5.139000000    -3.272000000
O     2.461000000     3.836000000     2.460000000
H     3.065000000     4.387000000     1.963000000
H     2.384000000     3.036000000     1.939000000
O    -1.540000000     5.162000000    -0.547000000
H    -0.988000000     4.566000000    -1.054000000
H    -2.120000000     4.585000000    -0.049000000
O    -4.921000000    -0.238000000    -0.460000000
H    -4.434000000     0.542000000    -0.725000000
H    -4.246000000    -0.866000000    -0.201000000
O    -3.033000000    -0.157000000     3.661000000
H    -2.586000000    -0.807000000     3.119000000
H    -2.695000000     0.684000000     3.354000000
O    -0.570000000     7.244000000     0.911000000
H    -0.591000000     6.408000000     0.446000000
H    -1.438000000     7.320000000     1.308000000
O    -0.555000000    -2.650000000    -4.126000000
H    -0.997000000    -2.250000000    -4.875000000
H     0.374000000    -2.476000000    -4.274000000
O     4.447000000     2.922000000    -0.459000000
H     4.161000000     3.637000000     0.109000000
H     3.892000000     2.182000000    -0.211000000
O    -5.324000000     6.199000000     2.796000000
H    -4.982000000     6.521000000     3.630000000
H    -5.473000000     5.265000000     2.943000000
O    -4.240000000     2.417000000    -1.037000000
H    -3.919000000     2.709000000    -1.890000000
H    -3.535000000     2.636000000    -0.427000000
O    -2.255000000    -2.257000000     2.128000000
H    -2.430000000    -2.021000000     1.217000000
H    -3.025000000    -2.758000000     2.398000000
O     3.167000000     3.214000000    -3.019000000
H     3.719000000     2.948000000    -2.284000000
H     3.251000000     4.167000000    -3.048000000
O     2.754000000     1.442000000     1.240000000
H     2.081000000     0.767000000     1.152000000
H     3.518000000     0.975000000     1.578000000
O     2.919000000     1.407000000     4.290000000
H     2.397000000     0.993000000     4.978000000
H     2.445000000     2.213000000     4.083000000
O     1.980000000    -4.945000000     5.268000000
H     2.410000000    -4.798000000     4.425000000
H     2.424000000    -4.348000000     5.870000000
O     1.661000000     2.095000000    -5.143000000
H     2.013000000     2.539000000    -5.915000000
H     1.999000000     2.599000000    -4.402000000
O     3.062000000    -0.827000000    -4.391000000
H     2.903000000     0.111000000    -4.491000000
H     3.934000000    -0.882000000    -3.999000000
O     2.374000000    -3.797000000     2.429000000
H     3.264000000    -3.881000000     2.088000000
H     1.861000000    -4.423000000     1.917000000
O    -3.685000000     3.121000000     6.313000000
H    -4.461000000     2.562000000     6.285000000
H    -4.027000000     4.010000000     6.228000000
O     6.081000000    -3.410000000    -3.423000000
H     6.595000000    -3.937000000    -2.811000000
H     5.199000000    -3.778000000    -3.373000000
O     3.838000000    -1.201000000     2.220000000
H     2.918000000    -1.466000000     2.217000000
H     4.217000000    -1.656000000     2.972000000
O    -0.717000000    -6.284000000     2.181000000
H    -1.340000000    -5.752000000     1.686000000
H     0.140000000    -6.026000000     1.842000000
O    -2.966000000     2.608000000    -3.708000000
H    -2.619000000     3.467000000    -3.468000000
H    -2.222000000     2.149000000    -4.098000000
O    -1.075000000    -2.007000000     4.736000000
H    -0.157000000    -1.780000000     4.587000000
H    -1.366000000    -2.383000000     3.905000000
O    -1.159000000     1.509000000    -5.159000000
H    -1.184000000     0.574000000    -5.360000000
H    -0.227000000     1.721000000    -5.116000000
O    -0.447000000     1.068000000     7.756000000
H    -0.856000000     1.472000000     6.990000000
H     0.443000000     0.862000000     7.471000000
O    -0.498000000    -5.387000000    -1.347000000
H    -0.241000000    -5.920000000    -2.099000000
H    -1.112000000    -4.746000000    -1.706000000
O     1.661000000    -5.427000000     0.447000000
H     0.964000000    -5.262000000    -0.187000000
H     2.467000000    -5.206000000    -0.020000000
O    -3.739000000    -0.103000000     6.397000000
H    -3.330000000    -0.466000000     5.611000000
H    -4.107000000     0.733000000     6.111000000
O    -5.343000000     0.095000000     2.283000000
H    -4.532000000    -0.069000000     2.763000000
H    -5.170000000    -0.235000000     1.401000000
O    -3.400000000     7.379000000    -1.092000000
H    -3.763000000     7.178000000    -1.954000000
H    -2.841000000     6.630000000    -0.887000000
