161
-3035.19648
C     0.988000000     1.046000000     0.281000000
H     1.862000000     1.688000000     0.365000000
C     0.602000000     0.644000000    -0.986000000
H     1.077000000     1.129000000    -1.835000000
C    -0.270000000    -0.379000000    -1.096000000
C    -0.697000000    -0.767000000    -2.554000000
H    -1.147000000    -1.759000000    -2.634000000
H    -1.541000000    -0.173000000    -2.912000000
H     0.092000000    -0.551000000    -3.277000000
C    -0.790000000    -0.996000000     0.047000000
H    -1.591000000    -1.710000000    -0.125000000
C    -0.476000000    -0.541000000     1.335000000
H    -0.868000000    -1.129000000     2.161000000
C     0.420000000     0.478000000     1.478000000
C     0.685000000     0.928000000     2.876000000
O     0.110000000     0.414000000     3.811000000
O     1.548000000     1.683000000     3.059000000
O     1.679000000    -3.255000000    -4.674000000
H     1.196000000    -2.575000000    -5.145000000
H     2.574000000    -3.187000000    -5.007000000
O     2.865000000    -1.554000000    -2.672000000
H     2.096000000    -1.961000000    -3.072000000
H     3.007000000    -0.757000000    -3.183000000
O    -2.204000000    -4.047000000    -2.000000000
H    -2.289000000    -4.202000000    -1.060000000
H    -1.330000000    -4.371000000    -2.218000000
O     0.258000000    -1.323000000    -5.971000000
H    -0.537000000    -0.820000000    -5.796000000
H     0.590000000    -0.967000000    -6.795000000
O     1.160000000     5.529000000    -3.562000000
H     1.134000000     5.181000000    -2.671000000
H     0.945000000     6.457000000    -3.464000000
O     6.410000000     0.727000000     3.881000000
H     5.586000000     1.127000000     3.604000000
H     6.953000000     0.726000000     3.093000000
O    -3.351000000     3.234000000     4.050000000
H    -3.204000000     2.887000000     3.171000000
H    -3.391000000     4.183000000     3.930000000
O    -4.414000000    -0.391000000    -2.149000000
H    -4.109000000    -0.874000000    -2.917000000
H    -5.368000000    -0.395000000    -2.227000000
O    -2.805000000    -4.591000000     0.705000000
H    -2.715000000    -4.419000000     1.643000000
H    -3.605000000    -5.111000000     0.632000000
O     0.548000000    -2.425000000     4.822000000
H     0.397000000    -1.498000000     5.007000000
H     0.213000000    -2.550000000     3.934000000
O     3.612000000    -2.266000000     4.658000000
H     4.006000000    -3.129000000     4.785000000
H     2.715000000    -2.363000000     4.977000000
O     1.199000000    -1.390000000     8.281000000
H     1.987000000    -1.929000000     8.346000000
H     1.221000000    -1.039000000     7.391000000
O     2.186000000     0.641000000    -4.235000000
H     1.668000000     0.063000000    -4.795000000
H     2.299000000     1.438000000    -4.752000000
O     4.071000000     1.752000000     2.848000000
H     3.158000000     1.499000000     2.991000000
H     4.110000000     2.669000000     3.120000000
O    -1.730000000     3.382000000    -4.297000000
H    -1.770000000     3.052000000    -3.399000000
H    -1.698000000     4.333000000    -4.202000000
O     0.278000000    -4.974000000    -2.986000000
H     0.904000000    -4.871000000    -2.269000000
H     0.615000000    -4.408000000    -3.681000000
O    -0.417000000    -6.062000000     0.234000000
H     0.140000000    -5.415000000     0.666000000
H    -1.137000000    -5.550000000    -0.135000000
O    -2.133000000    -0.186000000    -5.556000000
H    -2.832000000     0.228000000    -6.062000000
H    -2.572000000    -0.878000000    -5.062000000
O    -4.907000000     2.911000000    -2.991000000
H    -5.776000000     2.533000000    -3.124000000
H    -4.806000000     3.537000000    -3.708000000
O    -3.226000000     1.400000000     5.991000000
H    -3.266000000     2.099000000     5.338000000
H    -2.787000000     0.678000000     5.542000000
O     1.639000000     4.420000000     1.732000000
H     1.575000000     3.564000000     2.157000000
H     2.576000000     4.618000000     1.732000000
O     0.924000000     5.548000000     4.409000000
H     1.399000000     5.452000000     3.584000000
H     0.539000000     4.686000000     4.566000000
O    -2.416000000     2.293000000    -1.955000000
H    -2.388000000     1.364000000    -1.726000000
H    -3.342000000     2.471000000    -2.121000000
O    -2.653000000    -2.800000000     6.781000000
H    -2.595000000    -2.174000000     6.060000000
H    -3.592000000    -2.888000000     6.947000000
O     1.502000000     0.202000000     6.341000000
H     2.418000000     0.133000000     6.072000000
H     1.042000000     0.493000000     5.554000000
O    -2.137000000    -0.787000000     4.576000000
H    -2.742000000    -0.819000000     3.835000000
H    -1.299000000    -0.530000000     4.190000000
O    -0.617000000     3.026000000     4.908000000
H    -1.516000000     2.758000000     4.717000000
H    -0.082000000     2.285000000     4.625000000
O     2.958000000     2.630000000     7.224000000
H     2.956000000     1.987000000     6.516000000
H     2.516000000     2.189000000     7.950000000
O    -2.207000000    -6.225000000    -4.383000000
H    -2.735000000    -6.296000000    -3.588000000
H    -1.396000000    -5.806000000    -4.095000000
O    -3.394000000    -2.323000000    -3.931000000
H    -3.785000000    -2.653000000    -4.739000000
H    -2.985000000    -3.090000000    -3.531000000
O    -0.239000000    -3.942000000    -7.554000000
H    -0.024000000    -3.172000000    -7.028000000
H    -1.192000000    -4.009000000    -7.502000000
O     0.079000000     1.594000000     8.549000000
H     0.049000000     1.342000000     9.472000000
H     0.396000000     0.812000000     8.097000000
O     4.280000000     4.503000000     2.838000000
H     4.142000000     5.337000000     2.389000000
H     4.970000000     4.686000000     3.476000000
O    -0.035000000     1.844000000    -5.942000000
H    -0.443000000     2.488000000    -5.363000000
H    -0.751000000     1.258000000    -6.189000000
O     4.908000000     0.139000000     0.077000000
H     3.986000000    -0.045000000    -0.100000000
H     4.896000000     0.935000000     0.609000000
O    -2.424000000     2.128000000     1.833000000
H    -1.656000000     2.479000000     1.384000000
H    -2.912000000     1.668000000     1.150000000
O    -4.764000000    -2.451000000    -0.007000000
H    -3.922000000    -2.895000000     0.089000000
H    -4.706000000    -2.006000000    -0.852000000
O    -4.188000000    -1.076000000     2.371000000
H    -3.693000000    -1.886000000     2.245000000
H    -5.092000000    -1.314000000     2.165000000
O     4.234000000     0.266000000     5.709000000
H     4.169000000    -0.499000000     5.137000000
H     5.113000000     0.609000000     5.550000000
O    -3.827000000     0.534000000     0.231000000
H    -4.177000000    -0.161000000     0.788000000
H    -3.839000000     0.163000000    -0.652000000
O     1.956000000    -4.597000000     1.556000000
H     2.080000000    -3.765000000     2.013000000
H     2.162000000    -5.263000000     2.212000000
O     3.100000000     3.199000000    -2.239000000
H     2.921000000     2.373000000    -2.687000000
H     3.683000000     3.673000000    -2.833000000
O    -2.591000000    -4.967000000     3.544000000
H    -1.860000000    -5.448000000     3.932000000
H    -3.364000000    -5.293000000     4.006000000
O     1.101000000     4.555000000    -1.067000000
H     1.814000000     3.999000000    -1.380000000
H     1.103000000     4.436000000    -0.117000000
O     1.074000000    -5.007000000     4.574000000
H     1.475000000    -5.323000000     5.384000000
H     0.766000000    -4.126000000     4.787000000
O    -0.025000000     4.046000000     7.449000000
H     0.185000000     3.305000000     8.018000000
H    -0.294000000     3.644000000     6.623000000
O    -1.860000000     4.759000000    -0.965000000
H    -0.987000000     4.728000000    -1.356000000
H    -2.077000000     3.843000000    -0.791000000
O     2.581000000    -1.522000000     0.066000000
H     1.715000000    -1.192000000     0.306000000
H     2.584000000    -1.512000000    -0.891000000
