161
-3051.01099
C     0.447000000     1.223000000     0.769000000
H     0.715000000     2.211000000     1.133000000
C     0.631000000     0.962000000    -0.586000000
H     1.105000000     1.705000000    -1.222000000
C     0.226000000    -0.217000000    -1.166000000
C     0.448000000    -0.488000000    -2.650000000
H     1.153000000    -1.286000000    -2.890000000
H    -0.541000000    -0.821000000    -2.970000000
H     0.647000000     0.387000000    -3.273000000
C    -0.404000000    -1.160000000    -0.391000000
H    -0.754000000    -2.040000000    -0.923000000
C    -0.589000000    -0.907000000     0.984000000
H    -1.085000000    -1.696000000     1.544000000
C    -0.244000000     0.310000000     1.528000000
C    -0.427000000     0.508000000     3.011000000
O    -0.706000000    -0.385000000     3.802000000
O    -0.628000000     1.691000000     3.302000000
O     2.682000000    -3.568000000    -3.386000000
H     3.239000000    -3.000000000    -3.919000000
H     3.067000000    -4.439000000    -3.481000000
O     0.398000000    -4.136000000    -6.638000000
H     0.125000000    -3.967000000    -5.736000000
H    -0.386000000    -3.967000000    -7.161000000
O     2.328000000     5.105000000    -2.734000000
H     2.024000000     5.712000000    -3.410000000
H     3.258000000     4.981000000    -2.925000000
O     4.138000000    -1.926000000    -4.982000000
H     3.703000000    -1.684000000    -5.800000000
H     4.728000000    -2.639000000    -5.226000000
O    -4.724000000    -0.635000000    -3.492000000
H    -4.366000000     0.127000000    -3.946000000
H    -4.302000000    -1.385000000    -3.911000000
O    -2.654000000    -3.827000000     0.091000000
H    -1.845000000    -3.375000000     0.330000000
H    -2.934000000    -4.259000000     0.898000000
O    -0.539000000    -2.819000000     5.302000000
H    -0.140000000    -2.452000000     6.091000000
H    -0.740000000    -2.057000000     4.758000000
O     3.238000000    -0.575000000     2.731000000
H     3.763000000     0.153000000     2.398000000
H     2.429000000    -0.166000000     3.039000000
O     0.867000000    -1.688000000     7.152000000
H     0.818000000    -0.794000000     6.813000000
H     1.780000000    -1.944000000     7.023000000
O    -3.669000000     4.182000000     6.102000000
H    -3.330000000     3.330000000     5.826000000
H    -2.917000000     4.622000000     6.498000000
O     4.040000000     1.815000000     1.973000000
H     3.522000000     2.464000000     2.449000000
H     4.923000000     2.183000000     1.951000000
O    -1.356000000     1.886000000    -4.511000000
H    -0.644000000     2.515000000    -4.392000000
H    -1.692000000     1.735000000    -3.628000000
O    -1.219000000    -5.424000000    -1.877000000
H    -1.031000000    -4.710000000    -1.268000000
H    -1.723000000    -6.053000000    -1.360000000
O    -2.528000000    -0.057000000    -6.067000000
H    -2.138000000     0.779000000    -5.813000000
H    -3.472000000     0.094000000    -6.017000000
O     3.414000000    -3.285000000     2.884000000
H     3.350000000    -2.336000000     2.785000000
H     2.537000000    -3.558000000     3.154000000
O     5.598000000    -1.954000000    -0.859000000
H     4.875000000    -1.508000000    -1.300000000
H     6.370000000    -1.730000000    -1.379000000
O     1.308000000     3.356000000     3.367000000
H     0.706000000     2.682000000     3.686000000
H     0.764000000     3.924000000     2.822000000
O     0.146000000    -4.018000000     0.331000000
H     0.995000000    -3.793000000    -0.050000000
H     0.276000000    -3.928000000     1.275000000
O     3.773000000    -0.602000000    -2.204000000
H     3.347000000     0.243000000    -2.056000000
H     3.329000000    -0.962000000    -2.972000000
O    -3.238000000    -1.637000000     7.088000000
H    -4.077000000    -1.188000000     6.980000000
H    -2.956000000    -1.835000000     6.195000000
O     2.455000000     1.423000000     4.825000000
H     3.348000000     1.349000000     5.162000000
H     2.385000000     2.332000000     4.532000000
O    -3.756000000     5.837000000     3.759000000
H    -3.418000000     5.278000000     3.059000000
H    -3.664000000     5.310000000     4.553000000
O    -2.906000000     1.785000000     4.831000000
H    -3.307000000     0.933000000     4.659000000
H    -2.090000000     1.771000000     4.330000000
O    -0.017000000     0.937000000     6.215000000
H     0.766000000     1.302000000     5.804000000
H    -0.487000000     0.511000000     5.499000000
O    -1.801000000    -6.848000000     0.634000000
H    -1.129000000    -7.338000000     1.108000000
H    -1.921000000    -6.048000000     1.146000000
O     1.866000000     2.627000000    -6.570000000
H     1.938000000     3.557000000    -6.786000000
H     2.626000000     2.451000000    -6.016000000
O     1.890000000     4.617000000     5.742000000
H     1.822000000     4.242000000     4.864000000
H     1.483000000     5.480000000     5.667000000
O    -2.485000000    -2.263000000    -4.174000000
H    -1.685000000    -2.785000000    -4.233000000
H    -2.347000000    -1.541000000    -4.787000000
O     1.366000000     5.837000000     2.062000000
H     2.106000000     5.509000000     2.574000000
H     1.538000000     5.535000000     1.171000000
O    -5.567000000     2.231000000     4.906000000
H    -4.620000000     2.105000000     4.971000000
H    -5.709000000     3.132000000     5.194000000
O     0.052000000     0.977000000     9.042000000
H     0.905000000     0.574000000     9.203000000
H    -0.091000000     0.868000000     8.102000000
O     2.144000000    -0.362000000    -6.670000000
H     1.329000000    -0.849000000    -6.547000000
H     1.929000000     0.534000000    -6.412000000
O     3.654000000     2.239000000    -1.003000000
H     3.869000000     1.811000000    -0.174000000
H     4.431000000     2.756000000    -1.214000000
O    -3.441000000    -5.455000000    -4.253000000
H    -2.831000000    -6.175000000    -4.412000000
H    -3.255000000    -5.177000000    -3.356000000
O    -4.785000000     2.901000000     1.449000000
H    -4.468000000     2.658000000     0.579000000
H    -3.999000000     2.911000000     1.996000000
O    -4.614000000    -2.233000000     1.873000000
H    -5.011000000    -2.646000000     1.106000000
H    -5.340000000    -1.787000000     2.308000000
O    -4.464000000    -4.757000000    -1.483000000
H    -3.717000000    -4.389000000    -1.010000000
H    -5.082000000    -4.029000000    -1.557000000
O    -3.433000000    -0.732000000     4.100000000
H    -3.930000000    -1.415000000     3.650000000
H    -2.518000000    -0.985000000     3.981000000
O    -3.581000000    -0.196000000    -0.740000000
H    -3.231000000    -0.725000000    -0.023000000
H    -3.400000000    -0.710000000    -1.527000000
O    -2.314000000     3.980000000     2.288000000
H    -1.731000000     3.426000000     2.807000000
H    -1.928000000     3.982000000     1.413000000
O     1.762000000     4.367000000    -0.322000000
H     2.257000000     3.560000000    -0.459000000
H     1.791000000     4.813000000    -1.169000000
O    -3.008000000    -4.759000000     2.787000000
H    -3.145000000    -5.704000000     2.859000000
H    -3.079000000    -4.438000000     3.685000000
O     3.231000000    -5.805000000    -1.308000000
H     3.246000000    -4.853000000    -1.208000000
H     2.947000000    -6.131000000    -0.454000000
O    -1.099000000     4.219000000    -0.215000000
H    -1.238000000     5.166000000    -0.184000000
H    -0.152000000     4.120000000    -0.318000000
O     0.731000000    -4.162000000     3.288000000
H     0.696000000    -5.105000000     3.444000000
H     0.382000000    -3.773000000     4.090000000
O    -0.097000000    -3.777000000    -3.727000000
H    -0.360000000    -4.649000000    -3.433000000
H     0.815000000    -3.695000000    -3.447000000
O    -1.959000000     1.982000000    -1.867000000
H    -2.528000000     1.285000000    -1.539000000
H    -1.567000000     2.361000000    -1.080000000
O     2.328000000    -3.157000000    -0.761000000
H     2.456000000    -2.280000000    -0.398000000
H     2.607000000    -3.082000000    -1.673000000
