161
-3039.40022
C     0.079000000     1.413000000     0.455000000
H     0.181000000     2.459000000     0.735000000
C     0.733000000     0.833000000    -0.648000000
H     1.239000000     1.426000000    -1.406000000
C     0.528000000    -0.454000000    -1.015000000
C     0.946000000    -1.052000000    -2.350000000
H     0.813000000    -2.135000000    -2.303000000
H     0.424000000    -0.637000000    -3.215000000
H     2.005000000    -0.862000000    -2.540000000
C    -0.195000000    -1.245000000    -0.130000000
H    -0.322000000    -2.301000000    -0.355000000
C    -0.597000000    -0.773000000     1.123000000
H    -1.324000000    -1.293000000     1.741000000
C    -0.567000000     0.591000000     1.358000000
C    -1.134000000     1.201000000     2.540000000
O    -1.240000000     0.519000000     3.584000000
O    -1.568000000     2.309000000     2.425000000
O     2.661000000    -3.019000000    -5.201000000
H     2.362000000    -3.553000000    -5.937000000
H     3.571000000    -3.286000000    -5.065000000
O     2.992000000     4.733000000    -1.149000000
H     2.524000000     5.392000000    -0.636000000
H     3.783000000     5.181000000    -1.450000000
O    -4.824000000     0.021000000     1.237000000
H    -4.466000000    -0.684000000     1.777000000
H    -4.108000000     0.260000000     0.649000000
O     5.235000000    -3.582000000    -4.691000000
H     5.550000000    -4.416000000    -5.039000000
H     6.000000000    -3.007000000    -4.716000000
O    -2.324000000    -3.891000000     0.481000000
H    -1.640000000    -3.920000000    -0.188000000
H    -2.357000000    -4.782000000     0.828000000
O     1.036000000    -3.133000000     3.458000000
H     1.460000000    -2.337000000     3.137000000
H     0.232000000    -2.824000000     3.875000000
O     4.304000000    -0.555000000    -3.957000000
H     4.083000000     0.284000000    -4.360000000
H     4.200000000    -1.194000000    -4.663000000
O     4.359000000     1.693000000     3.675000000
H     3.759000000     2.433000000     3.585000000
H     4.787000000     1.626000000     2.821000000
O    -0.995000000     2.415000000    -3.481000000
H    -0.477000000     2.870000000    -4.144000000
H    -0.369000000     2.213000000    -2.785000000
O     0.403000000     3.216000000    -5.707000000
H     1.242000000     3.622000000    -5.926000000
H     0.410000000     2.382000000    -6.178000000
O    -2.116000000    -7.338000000    -2.082000000
H    -1.859000000    -6.430000000    -1.918000000
H    -2.850000000    -7.490000000    -1.487000000
O    -2.808000000     0.070000000    -3.106000000
H    -2.207000000     0.736000000    -3.442000000
H    -3.368000000    -0.144000000    -3.852000000
O     5.224000000    -5.563000000    -2.093000000
H     5.320000000    -5.052000000    -2.896000000
H     4.353000000    -5.336000000    -1.767000000
O     0.692000000     3.317000000     3.998000000
H    -0.044000000     3.083000000     3.433000000
H     0.479000000     2.923000000     4.844000000
O    -0.518000000    -5.025000000    -1.398000000
H     0.144000000    -4.755000000    -2.034000000
H    -0.019000000    -5.234000000    -0.608000000
O    -1.471000000     2.166000000     5.819000000
H    -1.615000000     1.720000000     4.984000000
H    -2.238000000     1.940000000     6.345000000
O     4.047000000    -2.904000000    -0.767000000
H     3.469000000    -2.548000000    -0.093000000
H     4.554000000    -2.150000000    -1.070000000
O     5.930000000    -0.970000000    -1.790000000
H     5.381000000    -0.967000000    -2.574000000
H     6.791000000    -1.249000000    -2.102000000
O    -3.908000000    -2.924000000     6.309000000
H    -4.740000000    -3.107000000     5.873000000
H    -3.644000000    -2.068000000     5.971000000
O     2.944000000    -0.439000000     4.926000000
H     3.149000000    -0.137000000     5.811000000
H     3.520000000     0.074000000     4.359000000
O    -5.240000000     3.764000000     5.307000000
H    -5.121000000     3.895000000     4.367000000
H    -5.385000000     2.822000000     5.401000000
O     2.134000000     3.282000000    -3.467000000
H     1.687000000     4.001000000    -3.914000000
H     2.479000000     3.675000000    -2.666000000
O    -5.290000000     1.074000000     5.736000000
H    -5.709000000     0.620000000     6.467000000
H    -4.475000000     0.594000000     5.591000000
O     0.343000000    -0.782000000     5.317000000
H     1.251000000    -0.627000000     5.057000000
H    -0.177000000    -0.342000000     4.645000000
O    -0.326000000     0.235000000     8.031000000
H    -0.440000000     0.098000000     7.090000000
H     0.441000000     0.804000000     8.098000000
O    -1.907000000    -6.315000000     1.799000000
H    -1.462000000    -7.163000000     1.798000000
H    -2.622000000    -6.421000000     2.427000000
O     0.906000000    -1.163000000    -5.897000000
H     1.732000000    -1.585000000    -5.659000000
H     0.236000000    -1.811000000    -5.680000000
O     4.076000000     1.983000000    -5.005000000
H     3.473000000     2.496000000    -4.466000000
H     3.630000000     1.896000000    -5.847000000
O    -2.761000000     0.584000000    -0.488000000
H    -1.991000000     0.147000000    -0.124000000
H    -2.775000000     0.319000000    -1.407000000
O     2.847000000     3.996000000     2.330000000
H     2.108000000     3.629000000     2.815000000
H     2.524000000     4.087000000     1.434000000
O     1.009000000     1.149000000    -7.253000000
H     0.863000000     0.356000000    -6.736000000
H     0.388000000     1.080000000    -7.978000000
O     3.136000000    -0.812000000     0.835000000
H     2.310000000    -0.341000000     0.725000000
H     3.809000000    -0.173000000     0.599000000
O    -5.916000000     2.761000000     1.907000000
H    -5.811000000     2.315000000     1.066000000
H    -5.036000000     3.066000000     2.127000000
O    -3.845000000    -2.486000000     2.543000000
H    -4.765000000    -2.582000000     2.297000000
H    -3.376000000    -3.070000000     1.946000000
O    -3.965000000    -3.872000000    -1.861000000
H    -3.397000000    -3.561000000    -2.566000000
H    -3.411000000    -3.851000000    -1.080000000
O    -3.325000000    -0.643000000     4.812000000
H    -3.464000000    -1.375000000     4.211000000
H    -2.497000000    -0.256000000     4.530000000
O    -2.775000000     3.458000000     0.017000000
H    -2.524000000     3.541000000     0.937000000
H    -2.466000000     2.589000000    -0.238000000
O    -3.466000000     3.796000000     3.198000000
H    -2.851000000     3.133000000     2.886000000
H    -2.966000000     4.612000000     3.186000000
O     0.731000000     4.966000000     0.851000000
H     0.603000000     5.826000000     1.252000000
H    -0.025000000     4.857000000     0.274000000
O     4.399000000     1.657000000     0.381000000
H     5.267000000     2.047000000     0.276000000
H     3.937000000     1.879000000    -0.427000000
O     1.994000000    -6.902000000    -2.982000000
H     2.212000000    -5.976000000    -2.882000000
H     2.148000000    -7.279000000    -2.115000000
O    -2.041000000     6.183000000     2.563000000
H    -2.329000000     6.673000000     1.792000000
H    -1.462000000     6.787000000     3.028000000
O     0.750000000    -5.200000000     0.780000000
H     1.600000000    -4.904000000     1.105000000
H     0.204000000    -5.266000000     1.563000000
O    -1.025000000    -3.517000000    -6.214000000
H    -0.986000000    -2.934000000    -6.972000000
H    -1.960000000    -3.672000000    -6.079000000
O    -3.059000000     5.210000000     6.069000000
H    -2.491000000     4.823000000     5.402000000
H    -3.922000000     4.836000000     5.894000000
O    -2.189000000    -2.521000000    -3.555000000
H    -1.890000000    -2.757000000    -4.433000000
H    -2.022000000    -1.581000000    -3.489000000
O    -4.576000000     5.098000000    -0.953000000
H    -3.924000000     4.631000000    -0.429000000
H    -5.103000000     4.406000000    -1.352000000
O     2.673000000    -4.256000000    -2.701000000
H     3.129000000    -3.672000000    -2.094000000
H     2.544000000    -3.728000000    -3.489000000
