161
-3044.36536
C     0.591000000     1.322000000     0.340000000
H     1.097000000     2.245000000     0.612000000
C     0.684000000     0.720000000    -0.896000000
H     1.329000000     1.191000000    -1.633000000
C     0.091000000    -0.489000000    -1.096000000
C     0.307000000    -1.268000000    -2.397000000
H    -0.020000000    -2.306000000    -2.312000000
H    -0.254000000    -0.820000000    -3.220000000
H     1.365000000    -1.217000000    -2.663000000
C    -0.593000000    -1.112000000    -0.065000000
H    -1.017000000    -2.101000000    -0.214000000
C    -0.726000000    -0.535000000     1.110000000
H    -1.227000000    -1.113000000     1.882000000
C    -0.091000000     0.709000000     1.399000000
C    -0.327000000     1.411000000     2.722000000
O    -0.880000000     0.765000000     3.610000000
O    -0.332000000     2.596000000     2.820000000
O     1.234000000     6.394000000     3.424000000
H     0.738000000     5.900000000     2.771000000
H     0.566000000     6.811000000     3.968000000
O     2.822000000     5.729000000     0.384000000
H     1.948000000     5.380000000     0.560000000
H     3.350000000     5.440000000     1.128000000
O    -3.706000000     2.745000000    -0.126000000
H    -2.818000000     3.101000000    -0.095000000
H    -3.718000000     2.202000000    -0.915000000
O    -3.115000000    -3.715000000     0.853000000
H    -2.192000000    -3.691000000     0.602000000
H    -3.219000000    -4.553000000     1.304000000
O     0.764000000    -3.229000000     1.799000000
H     0.731000000    -2.532000000     1.145000000
H     0.589000000    -2.786000000     2.630000000
O     3.648000000    -2.804000000     2.752000000
H     3.332000000    -1.985000000     2.371000000
H     4.536000000    -2.902000000     2.408000000
O     2.000000000    -2.783000000     4.847000000
H     2.525000000    -2.703000000     4.050000000
H     1.097000000    -2.839000000     4.534000000
O     4.039000000     0.809000000    -4.173000000
H     3.415000000     1.499000000    -3.950000000
H     3.816000000     0.565000000    -5.071000000
O     0.220000000     4.538000000    -5.086000000
H     0.745000000     3.841000000    -4.693000000
H     0.146000000     5.200000000    -4.399000000
O    -0.258000000    -0.897000000    -7.039000000
H    -0.064000000    -1.337000000    -7.867000000
H    -0.697000000    -0.087000000    -7.296000000
O    -3.139000000    -0.084000000    -5.722000000
H    -2.585000000    -0.765000000    -6.104000000
H    -2.705000000     0.737000000    -5.955000000
O    -3.660000000     3.374000000    -3.673000000
H    -4.517000000     3.080000000    -3.985000000
H    -3.279000000     2.600000000    -3.258000000
O    -2.057000000    -0.936000000     8.075000000
H    -2.843000000    -0.860000000     7.534000000
H    -1.339000000    -1.006000000     7.446000000
O    -3.126000000     1.604000000     7.641000000
H    -2.442000000     1.440000000     8.290000000
H    -2.665000000     2.007000000     6.905000000
O     1.997000000     3.432000000     4.073000000
H     1.183000000     3.025000000     3.776000000
H     2.007000000     4.287000000     3.642000000
O    -0.417000000    -5.458000000    -3.318000000
H    -0.752000000    -4.785000000    -3.909000000
H     0.272000000    -5.018000000    -2.819000000
O    -2.188000000     2.505000000     5.296000000
H    -2.402000000     3.276000000     4.771000000
H    -1.594000000     1.996000000     4.744000000
O     2.943000000    -3.936000000     0.104000000
H     2.593000000    -4.043000000     0.988000000
H     3.639000000    -3.285000000     0.199000000
O     6.212000000     0.330000000    -2.712000000
H     5.401000000     0.634000000    -3.118000000
H     6.859000000     0.363000000    -3.417000000
O    -2.436000000    -4.032000000     4.233000000
H    -1.839000000    -3.285000000     4.255000000
H    -2.938000000    -3.914000000     3.426000000
O    -4.151000000    -1.127000000     6.317000000
H    -4.711000000    -1.903000000     6.344000000
H    -3.891000000    -1.052000000     5.399000000
O     3.224000000    -0.444000000     5.317000000
H     2.932000000    -1.353000000     5.383000000
H     2.988000000    -0.054000000     6.159000000
O    -4.623000000     4.595000000     5.201000000
H    -3.873000000     4.687000000     4.614000000
H    -4.909000000     3.689000000     5.085000000
O     3.360000000     5.220000000    -2.312000000
H     2.870000000     6.010000000    -2.542000000
H     3.222000000     5.119000000    -1.371000000
O    -4.953000000     1.857000000     5.253000000
H    -4.473000000     1.756000000     6.076000000
H    -4.706000000     1.090000000     4.736000000
O    -0.691000000    -1.931000000     4.404000000
H    -0.420000000    -1.766000000     5.307000000
H    -0.743000000    -1.062000000     4.007000000
O     0.401000000    -1.379000000     6.996000000
H     0.985000000    -1.990000000     7.446000000
H     0.937000000    -0.599000000     6.852000000
O     2.435000000    -2.711000000    -4.731000000
H     3.043000000    -3.417000000    -4.511000000
H     1.804000000    -2.706000000    -4.011000000
O     2.498000000     3.042000000    -4.064000000
H     2.808000000     3.596000000    -3.348000000
H     2.883000000     3.429000000    -4.850000000
O     1.875000000     3.920000000     6.893000000
H     2.266000000     4.760000000     6.651000000
H     1.667000000     3.503000000     6.056000000
O    -2.117000000     1.488000000    -2.323000000
H    -2.842000000     0.956000000    -1.996000000
H    -1.417000000     0.858000000    -2.496000000
O     4.084000000     1.647000000     3.730000000
H     3.467000000     2.358000000     3.903000000
H     3.691000000     0.882000000     4.150000000
O     2.459000000    -0.406000000    -6.398000000
H     2.876000000    -0.899000000    -5.691000000
H     1.586000000    -0.791000000    -6.475000000
O     2.940000000    -0.656000000     0.917000000
H     3.552000000     0.075000000     1.002000000
H     2.337000000    -0.384000000     0.225000000
O    -4.983000000    -1.537000000     1.685000000
H    -5.715000000    -2.126000000     1.505000000
H    -4.216000000    -1.995000000     1.339000000
O    -4.934000000    -3.835000000    -2.147000000
H    -4.503000000    -3.293000000    -2.808000000
H    -4.475000000    -3.630000000    -1.333000000
O    -3.687000000    -0.134000000     3.758000000
H    -3.957000000    -0.315000000     2.858000000
H    -2.886000000     0.382000000     3.668000000
O    -0.893000000     3.816000000    -1.281000000
H    -1.133000000     2.934000000    -1.565000000
H    -1.373000000     4.397000000    -1.871000000
O    -2.286000000     4.270000000     3.344000000
H    -1.542000000     3.688000000     3.192000000
H    -2.235000000     4.914000000     2.638000000
O     1.478000000    -6.627000000    -4.949000000
H     0.667000000    -6.344000000    -4.527000000
H     2.081000000    -6.788000000    -4.223000000
O     0.215000000     4.625000000     1.006000000
H    -0.185000000     3.911000000     1.502000000
H    -0.081000000     4.487000000     0.106000000
O     4.541000000     1.503000000     1.000000000
H     4.046000000     1.588000000     1.815000000
H     5.144000000     2.246000000     1.007000000
O    -1.745000000     6.793000000     1.868000000
H    -2.402000000     7.454000000     1.649000000
H    -1.789000000     6.720000000     2.822000000
O    -0.666000000    -5.411000000     0.918000000
H    -0.135000000    -4.824000000     1.457000000
H    -0.044000000    -6.056000000     0.582000000
O    -4.645000000     0.481000000    -2.299000000
H    -5.406000000     1.015000000    -2.526000000
H    -4.925000000    -0.419000000    -2.468000000
O    -1.482000000    -2.554000000    -4.904000000
H    -1.791000000    -2.817000000    -5.771000000
H    -0.646000000    -2.118000000    -5.069000000
O    -3.753000000    -2.096000000    -3.604000000
H    -2.875000000    -2.410000000    -3.820000000
H    -3.837000000    -1.271000000    -4.083000000
O     2.115000000    -4.516000000    -2.281000000
H     2.584000000    -4.232000000    -1.496000000
H     2.764000000    -5.010000000    -2.782000000
