161
-3030.45924
C     0.464000000     1.077000000     0.957000000
H     0.732000000     1.879000000     1.640000000
C     0.969000000     0.888000000    -0.325000000
H     1.626000000     1.648000000    -0.741000000
C     0.472000000    -0.137000000    -1.153000000
C     0.865000000    -0.304000000    -2.554000000
H     1.813000000    -0.845000000    -2.560000000
H     0.133000000    -0.892000000    -3.112000000
H     1.027000000     0.652000000    -3.056000000
C    -0.546000000    -0.918000000    -0.704000000
H    -1.041000000    -1.632000000    -1.358000000
C    -0.954000000    -0.839000000     0.657000000
H    -1.643000000    -1.566000000     1.080000000
C    -0.496000000     0.139000000     1.492000000
C    -1.030000000     0.240000000     2.906000000
O    -1.581000000    -0.708000000     3.397000000
O    -0.809000000     1.317000000     3.436000000
O    -3.358000000    -1.877000000     7.335000000
H    -4.126000000    -2.446000000     7.274000000
H    -3.374000000    -1.550000000     8.235000000
O    -1.072000000     3.107000000    -0.971000000
H    -0.776000000     2.305000000    -0.540000000
H    -0.752000000     3.813000000    -0.410000000
O     4.526000000    -4.589000000    -0.260000000
H     3.618000000    -4.360000000    -0.059000000
H     4.626000000    -4.378000000    -1.188000000
O     4.367000000     4.543000000     1.913000000
H     4.905000000     4.629000000     1.126000000
H     3.546000000     4.983000000     1.690000000
O     0.119000000    -5.718000000     3.920000000
H    -0.170000000    -6.593000000     3.659000000
H    -0.691000000    -5.217000000     4.015000000
O     5.963000000    -0.487000000    -5.285000000
H     5.478000000    -0.957000000    -5.963000000
H     5.395000000     0.246000000    -5.049000000
O     6.329000000     4.491000000    -0.185000000
H     6.610000000     4.987000000    -0.954000000
H     5.673000000     3.880000000    -0.521000000
O     3.153000000     3.088000000    -3.303000000
H     3.475000000     3.736000000    -3.930000000
H     3.898000000     2.924000000    -2.725000000
O     3.854000000     1.136000000    -5.098000000
H     3.591000000     1.842000000    -4.507000000
H     3.747000000     1.506000000    -5.974000000
O     2.175000000     1.202000000     7.186000000
H     1.388000000     0.702000000     6.972000000
H     2.898000000     0.605000000     6.993000000
O     5.350000000    -0.930000000     1.010000000
H     5.872000000    -0.150000000     1.200000000
H     4.563000000    -0.827000000     1.545000000
O     0.064000000    -4.231000000    -2.759000000
H    -0.218000000    -5.074000000    -3.115000000
H     0.387000000    -3.746000000    -3.519000000
O     2.401000000    -5.196000000    -4.662000000
H     2.762000000    -4.514000000    -5.228000000
H     1.554000000    -5.408000000    -5.054000000
O    -0.503000000     5.009000000     0.708000000
H    -1.164000000     5.043000000     1.400000000
H     0.332000000     4.985000000     1.175000000
O    -3.827000000     1.931000000     7.035000000
H    -3.186000000     1.247000000     6.841000000
H    -4.107000000     1.750000000     7.932000000
O     4.646000000    -0.112000000     4.546000000
H     4.617000000     0.604000000     3.911000000
H     3.729000000    -0.355000000     4.674000000
O     0.053000000    -3.639000000    -5.474000000
H     0.094000000    -4.018000000    -6.352000000
H     0.297000000    -2.721000000    -5.598000000
O     1.009000000     4.475000000    -2.347000000
H     0.411000000     3.839000000    -1.956000000
H     1.649000000     3.943000000    -2.820000000
O    -1.869000000    -3.474000000     4.224000000
H    -2.281000000    -3.997000000     3.536000000
H    -1.650000000    -2.645000000     3.797000000
O     2.599000000    -1.308000000     1.984000000
H     2.395000000    -1.052000000     2.883000000
H     1.875000000    -0.958000000     1.464000000
O    -1.862000000    -4.367000000    -0.465000000
H    -1.097000000    -4.428000000    -1.037000000
H    -2.437000000    -3.737000000    -0.901000000
O     4.874000000    -4.286000000    -2.869000000
H     5.619000000    -4.195000000    -3.463000000
H     4.152000000    -4.566000000    -3.431000000
O    -0.796000000    -2.163000000     6.565000000
H    -1.721000000    -2.041000000     6.779000000
H    -0.804000000    -2.675000000     5.756000000
O     2.445000000    -1.177000000    -5.961000000
H     2.853000000    -0.456000000    -5.482000000
H     3.082000000    -1.889000000    -5.911000000
O    -2.488000000    -5.415000000     2.383000000
H    -3.285000000    -5.937000000     2.289000000
H    -2.200000000    -5.254000000     1.484000000
O    -0.797000000     5.184000000     5.782000000
H    -0.347000000     5.014000000     6.609000000
H    -0.333000000     4.645000000     5.141000000
O    -1.215000000     0.649000000    -5.394000000
H    -1.344000000     1.203000000    -4.624000000
H    -2.039000000     0.713000000    -5.876000000
O    -5.032000000    -0.835000000    -0.493000000
H    -4.795000000    -0.474000000     0.361000000
H    -4.601000000    -0.260000000    -1.125000000
O    -3.920000000    -0.632000000     4.696000000
H    -2.986000000    -0.827000000     4.622000000
H    -4.182000000    -1.022000000     5.530000000
O     5.165000000     2.332000000    -1.626000000
H     4.782000000     1.739000000    -0.979000000
H     5.999000000     1.926000000    -1.858000000
O    -6.452000000    -2.786000000     3.180000000
H    -7.215000000    -3.070000000     2.676000000
H    -5.708000000    -2.947000000     2.600000000
O    -0.035000000     0.411000000     5.963000000
H    -0.534000000    -0.389000000     6.128000000
H    -0.388000000     0.747000000     5.139000000
O     1.909000000    -1.074000000     4.679000000
H     1.343000000    -0.499000000     5.194000000
H     1.789000000    -1.940000000     5.068000000
O    -3.156000000    -5.017000000    -3.411000000
H    -2.904000000    -4.118000000    -3.620000000
H    -2.327000000    -5.494000000    -3.370000000
O    -2.889000000    -2.140000000    -3.289000000
H    -2.493000000    -1.802000000    -4.092000000
H    -3.783000000    -2.371000000    -3.541000000
O     0.635000000     3.184000000     4.534000000
H     0.625000000     2.971000000     5.467000000
H     0.308000000     2.394000000     4.105000000
O    -4.768000000    -3.586000000     1.036000000
H    -5.140000000    -2.923000000     0.454000000
H    -3.947000000    -3.201000000     1.343000000
O     1.745000000    -3.808000000     5.321000000
H     1.189000000    -3.978000000     6.081000000
H     1.311000000    -4.265000000     4.600000000
O     0.867000000     0.496000000    -7.391000000
H     1.305000000    -0.350000000    -7.299000000
H     0.466000000     0.652000000    -6.536000000
O    -4.447000000     0.300000000     2.042000000
H    -4.415000000    -0.033000000     2.939000000
H    -3.683000000     0.872000000     1.972000000
O    -5.612000000     3.573000000     1.916000000
H    -4.872000000     3.175000000     2.375000000
H    -5.505000000     3.297000000     1.006000000
O    -4.087000000     3.147000000    -0.535000000
H    -3.240000000     2.746000000    -0.729000000
H    -4.730000000     2.521000000    -0.867000000
O    -3.391000000     4.565000000     5.934000000
H    -2.471000000     4.790000000     6.077000000
H    -3.582000000     3.905000000     6.601000000
O    -3.036000000     2.778000000     3.246000000
H    -2.190000000     2.338000000     3.165000000
H    -2.970000000     3.276000000     4.061000000
O     1.589000000    -3.784000000    -0.315000000
H     1.288000000    -4.030000000    -1.190000000
H     1.270000000    -2.890000000    -0.194000000
O     1.507000000     5.378000000     2.556000000
H     1.465000000     4.690000000     3.220000000
H     1.059000000     6.124000000     2.955000000
O    -1.930000000     2.731000000    -3.420000000
H    -1.685000000     2.960000000    -2.523000000
H    -2.359000000     3.517000000    -3.759000000
O    -2.983000000     0.569000000    -1.785000000
H    -2.073000000     0.275000000    -1.812000000
H    -3.007000000     1.330000000    -2.365000000
