161
-3024.67784
C     0.522000000     0.909000000     0.977000000
H     1.025000000     1.671000000     1.568000000
C     0.793000000     0.874000000    -0.416000000
H     1.457000000     1.545000000    -0.956000000
C     0.148000000    -0.041000000    -1.246000000
C     0.658000000    -0.234000000    -2.663000000
H     0.853000000    -1.271000000    -2.943000000
H     0.232000000     0.442000000    -3.408000000
H     1.713000000     0.046000000    -2.650000000
C    -0.662000000    -0.926000000    -0.647000000
H    -1.008000000    -1.743000000    -1.274000000
C    -1.035000000    -0.822000000     0.727000000
H    -1.718000000    -1.577000000     1.109000000
C    -0.464000000     0.131000000     1.593000000
C    -0.742000000     0.295000000     3.041000000
O    -1.855000000    -0.084000000     3.386000000
O     0.077000000     0.788000000     3.810000000
O    -1.348000000     5.692000000     2.269000000
H    -1.848000000     5.126000000     2.857000000
H    -1.076000000     5.114000000     1.556000000
O    -1.275000000    -1.276000000     7.450000000
H    -1.619000000    -2.169000000     7.426000000
H    -0.863000000    -1.201000000     8.311000000
O     4.891000000     1.902000000     2.940000000
H     4.293000000     1.585000000     2.263000000
H     5.270000000     2.700000000     2.571000000
O     0.786000000     3.431000000    -3.273000000
H     1.722000000     3.231000000    -3.306000000
H     0.565000000     3.390000000    -2.343000000
O     3.707000000     3.451000000     0.447000000
H     4.259000000     3.741000000    -0.279000000
H     3.010000000     4.106000000     0.494000000
O    -5.318000000    -2.991000000     2.186000000
H    -5.221000000    -2.634000000     1.303000000
H    -5.249000000    -2.229000000     2.761000000
O     5.131000000    -1.982000000    -3.745000000
H     5.328000000    -2.386000000    -4.590000000
H     4.330000000    -1.482000000    -3.900000000
O     3.361000000     3.032000000    -4.447000000
H     3.700000000     3.800000000    -4.907000000
H     3.912000000     2.956000000    -3.668000000
O     3.354000000     0.752000000    -6.447000000
H     3.124000000     1.332000000    -5.721000000
H     3.409000000     1.331000000    -7.208000000
O     4.474000000     1.669000000     5.640000000
H     4.516000000     1.890000000     4.709000000
H     4.088000000     0.793000000     5.661000000
O    -0.565000000    -5.750000000    -1.561000000
H     0.238000000    -6.230000000    -1.362000000
H    -0.366000000    -5.273000000    -2.367000000
O    -0.406000000    -3.978000000    -3.662000000
H    -0.121000000    -4.419000000    -4.462000000
H    -0.904000000    -3.221000000    -3.970000000
O    -5.822000000    -4.538000000    -0.645000000
H    -4.921000000    -4.633000000    -0.339000000
H    -5.902000000    -5.176000000    -1.354000000
O    -0.183000000     4.170000000    -0.922000000
H    -1.133000000     4.081000000    -0.850000000
H     0.165000000     3.457000000    -0.387000000
O    -2.860000000     3.066000000     7.329000000
H    -3.317000000     2.255000000     7.108000000
H    -2.288000000     2.829000000     8.058000000
O     3.541000000    -1.058000000     5.695000000
H     3.153000000    -1.478000000     4.927000000
H     2.797000000    -0.679000000     6.162000000
O    -2.382000000    -2.739000000    -5.200000000
H    -2.350000000    -3.160000000    -6.059000000
H    -2.442000000    -1.804000000    -5.393000000
O    -1.686000000    -2.569000000     4.384000000
H    -2.074000000    -3.013000000     3.629000000
H    -1.619000000    -1.653000000     4.115000000
O     2.592000000    -1.405000000     1.097000000
H     1.939000000    -0.952000000     1.631000000
H     3.111000000    -0.701000000     0.706000000
O    -2.898000000    -4.405000000    -0.381000000
H    -2.074000000    -4.801000000    -0.663000000
H    -3.019000000    -3.659000000    -0.970000000
O    -3.309000000    -3.105000000     7.026000000
H    -3.103000000    -3.638000000     6.258000000
H    -3.531000000    -2.245000000     6.668000000
O     2.729000000    -1.798000000    -5.282000000
H     2.782000000    -0.959000000    -5.740000000
H     2.551000000    -2.437000000    -5.973000000
O    -2.688000000    -4.207000000     2.227000000
H    -3.567000000    -3.862000000     2.384000000
H    -2.632000000    -4.296000000     1.276000000
O     0.638000000     5.539000000     6.239000000
H     0.763000000     4.604000000     6.406000000
H     1.139000000     5.709000000     5.441000000
O    -2.037000000     0.085000000    -5.334000000
H    -2.147000000     0.847000000    -4.764000000
H    -2.359000000     0.376000000    -6.187000000
O     0.827000000     2.956000000     7.540000000
H     1.344000000     2.247000000     7.922000000
H     0.152000000     3.139000000     8.194000000
O    -3.052000000     0.464000000     6.038000000
H    -3.078000000     0.166000000     5.129000000
H    -2.437000000    -0.131000000     6.468000000
O     5.231000000     3.325000000    -2.484000000
H     5.740000000     4.022000000    -2.072000000
H     5.887000000     2.712000000    -2.816000000
O     0.919000000    -0.536000000     5.943000000
H     0.114000000    -0.834000000     6.367000000
H     0.627000000     0.113000000     5.303000000
O     5.852000000    -0.556000000    -1.464000000
H     6.297000000    -0.009000000    -2.111000000
H     5.610000000    -1.347000000    -1.945000000
O     1.668000000    -2.134000000     3.970000000
H     1.139000000    -1.460000000     4.396000000
H     1.237000000    -2.957000000     4.199000000
O    -2.907000000    -5.981000000    -4.007000000
H    -2.481000000    -5.606000000    -3.237000000
H    -2.194000000    -6.123000000    -4.629000000
O    -3.726000000    -2.802000000    -2.531000000
H    -3.053000000    -2.493000000    -3.138000000
H    -4.507000000    -2.907000000    -3.074000000
O     1.434000000     3.124000000     3.735000000
H     2.140000000     3.035000000     4.375000000
H     1.101000000     2.234000000     3.620000000
O    -5.106000000    -1.132000000     0.122000000
H    -5.979000000    -0.780000000     0.296000000
H    -5.089000000    -1.272000000    -0.824000000
O     0.227000000    -4.440000000     4.250000000
H    -0.356000000    -3.703000000     4.431000000
H     0.051000000    -5.063000000     4.956000000
O     0.406000000    -0.254000000    -6.926000000
H     0.347000000     0.694000000    -7.041000000
H     0.498000000    -0.375000000    -5.981000000
O    -4.262000000     0.155000000     2.425000000
H    -3.376000000     0.138000000     2.785000000
H    -4.149000000    -0.068000000     1.500000000
O    -2.782000000     3.999000000     0.406000000
H    -3.392000000     4.625000000     0.796000000
H    -3.327000000     3.247000000     0.173000000
O     1.341000000     6.744000000    -0.622000000
H     1.593000000     6.849000000    -1.539000000
H     1.299000000     5.796000000    -0.492000000
O    -2.203000000     3.423000000     3.944000000
H    -2.643000000     2.581000000     4.057000000
H    -1.365000000     3.318000000     4.394000000
O     4.358000000     0.743000000     0.438000000
H     4.839000000     0.316000000    -0.270000000
H     4.337000000     1.667000000     0.189000000
O     1.896000000    -3.690000000    -0.337000000
H     1.068000000    -3.627000000    -0.813000000
H     2.166000000    -2.781000000    -0.206000000
O     1.274000000     4.670000000     1.568000000
H     1.187000000     3.793000000     1.942000000
H     1.601000000     5.207000000     2.289000000
O    -1.467000000     2.726000000    -4.523000000
H    -0.544000000     2.788000000    -4.279000000
H    -1.745000000     3.634000000    -4.642000000
O    -3.600000000     3.109000000    -2.512000000
H    -2.847000000     2.900000000    -3.064000000
H    -3.867000000     3.985000000    -2.792000000
O    -5.905000000     0.116000000     6.258000000
H    -5.899000000    -0.838000000     6.331000000
H    -4.986000000     0.369000000     6.345000000
O    -6.190000000     1.979000000     2.517000000
H    -5.964000000     2.500000000     1.747000000
H    -5.537000000     1.279000000     2.532000000
