161
-3007.38615
C    -0.548000000     1.249000000     0.455000000
H    -0.775000000     2.208000000     0.915000000
C     0.814000000     0.977000000     0.355000000
H     1.510000000     1.748000000     0.676000000
C     1.216000000    -0.207000000    -0.166000000
C     2.617000000    -0.556000000    -0.041000000
H     2.776000000    -1.604000000     0.221000000
H     3.187000000    -0.302000000    -0.937000000
H     3.003000000     0.094000000     0.747000000
C     0.289000000    -1.149000000    -0.556000000
H     0.598000000    -2.137000000    -0.884000000
C    -1.101000000    -0.862000000    -0.544000000
H    -1.868000000    -1.547000000    -0.896000000
C    -1.495000000     0.361000000     0.002000000
C    -3.009000000     0.530000000     0.176000000
O    -3.780000000    -0.097000000    -0.479000000
O    -3.441000000     1.299000000     0.964000000
O     7.320000000    -0.315000000    -3.067000000
H     7.534000000     0.562000000    -3.386000000
H     6.392000000    -0.266000000    -2.837000000
O     2.104000000     3.794000000     3.843000000
H     2.483000000     4.669000000     3.923000000
H     2.812000000     3.258000000     3.485000000
O    -0.559000000     3.747000000     3.167000000
H     0.387000000     3.777000000     3.312000000
H    -0.934000000     3.664000000     4.043000000
O    -0.519000000    -3.432000000    -3.509000000
H     0.211000000    -2.814000000    -3.516000000
H    -0.566000000    -3.759000000    -4.407000000
O     3.634000000     5.165000000    -1.348000000
H     4.330000000     5.486000000    -1.921000000
H     2.960000000     5.843000000    -1.386000000
O     0.065000000    -3.353000000     1.964000000
H    -0.690000000    -3.916000000     1.790000000
H     0.315000000    -3.015000000     1.104000000
O     0.037000000    -1.023000000     3.765000000
H     0.105000000    -1.876000000     3.336000000
H    -0.721000000    -0.608000000     3.355000000
O     5.984000000    -5.245000000     1.901000000
H     5.538000000    -4.769000000     1.200000000
H     5.928000000    -6.164000000     1.639000000
O    -6.600000000    -0.175000000    -0.429000000
H    -5.694000000    -0.239000000    -0.732000000
H    -6.555000000     0.383000000     0.347000000
O     4.901000000    -4.326000000    -0.399000000
H     5.499000000    -3.653000000    -0.722000000
H     4.108000000    -4.214000000    -0.924000000
O     5.760000000     1.016000000     0.601000000
H     6.005000000     1.604000000    -0.113000000
H     6.461000000     1.116000000     1.245000000
O    -2.152000000    -4.472000000     1.131000000
H    -2.345000000    -4.412000000     0.196000000
H    -2.193000000    -5.408000000     1.325000000
O     0.837000000    -4.731000000    -1.146000000
H     1.614000000    -4.399000000    -1.596000000
H     0.131000000    -4.638000000    -1.786000000
O    -7.825000000    -1.032000000    -2.688000000
H    -8.050000000    -1.948000000    -2.525000000
H    -7.652000000    -0.669000000    -1.820000000
O    -2.502000000     0.849000000     6.256000000
H    -1.558000000     0.750000000     6.375000000
H    -2.649000000     0.652000000     5.331000000
O    -0.086000000     6.040000000     1.455000000
H    -0.271000000     5.251000000     1.965000000
H     0.867000000     6.127000000     1.486000000
O     0.467000000     1.288000000    -2.503000000
H     1.232000000     1.854000000    -2.394000000
H     0.244000000     1.014000000    -1.613000000
O    -5.550000000     3.120000000    -3.528000000
H    -4.897000000     2.461000000    -3.290000000
H    -5.410000000     3.270000000    -4.463000000
O     5.051000000    -1.196000000     5.025000000
H     4.264000000    -0.736000000     4.731000000
H     5.775000000    -0.646000000     4.727000000
O     2.529000000    -0.155000000     3.407000000
H     1.596000000    -0.086000000     3.607000000
H     2.632000000     0.313000000     2.579000000
O    -3.585000000    -2.258000000     2.457000000
H    -2.851000000    -2.872000000     2.449000000
H    -3.927000000    -2.280000000     1.563000000
O    -2.405000000    -4.284000000    -1.390000000
H    -3.021000000    -4.624000000    -2.039000000
H    -1.712000000    -3.875000000    -1.909000000
O    -1.475000000     1.450000000    -4.388000000
H    -0.910000000     1.224000000    -3.649000000
H    -2.013000000     0.670000000    -4.526000000
O    -5.469000000     1.885000000     4.705000000
H    -6.066000000     2.527000000     5.090000000
H    -4.998000000     1.518000000     5.452000000
O     3.615000000    -2.507000000     2.440000000
H     2.957000000    -3.192000000     2.558000000
H     3.204000000    -1.717000000     2.791000000
O     6.851000000    -3.007000000    -1.915000000
H     6.568000000    -2.391000000    -1.240000000
H     7.082000000    -2.455000000    -2.662000000
O     4.676000000    -0.019000000    -3.143000000
H     4.089000000     0.332000000    -2.473000000
H     4.140000000    -0.056000000    -3.935000000
O     3.579000000     4.969000000     1.316000000
H     3.232000000     5.851000000     1.448000000
H     3.771000000     4.926000000     0.379000000
O     3.933000000     2.152000000     2.313000000
H     4.115000000     1.694000000     1.492000000
H     4.266000000     3.038000000     2.171000000
O    -4.412000000    -2.987000000     0.054000000
H    -4.159000000    -2.218000000    -0.457000000
H    -3.840000000    -3.685000000    -0.264000000
O     5.783000000    -1.590000000     0.107000000
H     5.736000000    -0.661000000     0.331000000
H     5.140000000    -2.008000000     0.680000000
O    -4.349000000     0.518000000    -3.019000000
H    -4.740000000    -0.316000000    -3.278000000
H    -4.132000000     0.404000000    -2.093000000
O    -1.862000000    -1.738000000    -5.038000000
H    -1.848000000    -2.184000000    -4.191000000
H    -2.754000000    -1.868000000    -5.362000000
O    -5.795000000     3.177000000    -0.245000000
H    -5.133000000     2.553000000     0.051000000
H    -6.615000000     2.682000000    -0.228000000
O     1.683000000    -6.886000000     1.233000000
H     1.094000000    -6.528000000     1.897000000
H     1.869000000    -6.147000000     0.654000000
O    -6.135000000     4.002000000     2.977000000
H    -5.818000000     3.345000000     3.596000000
H    -5.690000000     3.792000000     2.156000000
O    -0.555000000     4.497000000    -0.748000000
H     0.282000000     4.090000000    -0.528000000
H    -0.652000000     5.206000000    -0.111000000
O    -2.715000000     0.229000000     3.388000000
H    -3.275000000    -0.543000000     3.472000000
H    -3.017000000     0.657000000     2.587000000
O    -5.545000000    -2.816000000    -3.143000000
H    -5.491000000    -3.353000000    -2.352000000
H    -6.351000000    -3.103000000    -3.573000000
O    -4.000000000     6.416000000     1.602000000
H    -3.798000000     5.480000000     1.591000000
H    -3.174000000     6.836000000     1.839000000
O     2.918000000    -3.349000000    -2.264000000
H     2.526000000    -2.478000000    -2.324000000
H     3.169000000    -3.561000000    -3.164000000
O    -3.327000000     3.743000000     1.902000000
H    -2.445000000     3.600000000     2.245000000
H    -3.515000000     2.957000000     1.390000000
O     2.702000000     2.765000000    -2.246000000
H     2.843000000     3.547000000    -1.712000000
H     2.664000000     3.093000000    -3.145000000
O     6.396000000     2.524000000    -1.640000000
H     6.565000000     2.423000000    -2.577000000
H     5.785000000     3.259000000    -1.585000000
O     1.446000000    -1.044000000    -3.699000000
H     1.967000000    -0.890000000    -4.487000000
H     1.083000000    -0.186000000    -3.480000000
O    -7.386000000    -2.697000000     0.406000000
H    -6.886000000    -1.930000000     0.127000000
H    -6.974000000    -3.430000000    -0.052000000
O    -2.513000000     3.938000000    -3.315000000
H    -1.778000000     4.177000000    -2.750000000
H    -2.235000000     3.127000000    -3.740000000
O    -5.794000000     0.250000000     2.362000000
H    -5.751000000     0.771000000     3.164000000
H    -5.009000000     0.497000000     1.873000000
