161
-3015.64326
C    -0.437000000     1.261000000     0.563000000
H    -0.518000000     2.298000000     0.879000000
C     0.726000000     0.579000000     0.930000000
H     1.484000000     1.143000000     1.467000000
C     0.959000000    -0.649000000     0.396000000
C     2.260000000    -1.313000000     0.681000000
H     2.797000000    -1.473000000    -0.257000000
H     2.870000000    -0.707000000     1.354000000
H     2.107000000    -2.300000000     1.122000000
C     0.065000000    -1.230000000    -0.498000000
H     0.271000000    -2.205000000    -0.931000000
C    -1.040000000    -0.527000000    -0.902000000
H    -1.801000000    -0.999000000    -1.517000000
C    -1.321000000     0.708000000    -0.382000000
C    -2.479000000     1.586000000    -0.882000000
O    -3.390000000     1.072000000    -1.547000000
O    -2.561000000     2.749000000    -0.472000000
O    -7.047000000     1.856000000    -0.804000000
H    -6.662000000     1.013000000    -1.040000000
H    -7.746000000     1.637000000    -0.188000000
O     1.024000000    -4.327000000    -5.987000000
H     1.899000000    -4.125000000    -5.656000000
H     0.446000000    -4.184000000    -5.238000000
O     5.445000000    -1.469000000    -1.554000000
H     5.779000000    -0.635000000    -1.885000000
H     5.371000000    -2.023000000    -2.331000000
O     3.301000000     2.713000000     5.268000000
H     2.776000000     3.477000000     5.028000000
H     3.745000000     2.970000000     6.075000000
O     0.012000000     3.474000000     3.434000000
H     0.943000000     3.361000000     3.243000000
H    -0.007000000     3.886000000     4.299000000
O     2.555000000    -4.266000000     3.049000000
H     1.634000000    -4.501000000     2.943000000
H     3.008000000    -4.755000000     2.361000000
O    -3.586000000    -3.228000000    -2.637000000
H    -4.247000000    -3.825000000    -2.990000000
H    -3.005000000    -3.789000000    -2.125000000
O    -5.273000000    -0.574000000    -0.781000000
H    -4.577000000     0.057000000    -0.964000000
H    -5.344000000    -0.584000000     0.174000000
O     3.958000000    -4.870000000     0.353000000
H     4.408000000    -4.099000000     0.696000000
H     3.486000000    -4.550000000    -0.416000000
O    -0.240000000    -4.631000000     2.300000000
H     0.054000000    -4.774000000     1.401000000
H    -1.005000000    -5.199000000     2.395000000
O     0.442000000    -5.273000000    -0.121000000
H     1.209000000    -4.730000000    -0.301000000
H     0.702000000    -6.153000000    -0.392000000
O    -7.011000000    -2.146000000    -2.361000000
H    -7.045000000    -2.863000000    -1.728000000
H    -6.243000000    -1.635000000    -2.104000000
O    -7.293000000     4.218000000    -2.711000000
H    -7.828000000     3.783000000    -2.047000000
H    -6.392000000     4.079000000    -2.421000000
O     0.438000000     6.620000000     3.087000000
H     0.200000000     7.052000000     3.907000000
H    -0.055000000     5.799000000     3.096000000
O    -3.042000000     6.359000000    -3.633000000
H    -2.785000000     5.983000000    -2.791000000
H    -2.861000000     5.668000000    -4.269000000
O    -4.405000000     2.596000000    -6.667000000
H    -4.274000000     1.794000000    -6.162000000
H    -4.659000000     2.292000000    -7.538000000
O     0.636000000     1.638000000    -3.044000000
H     1.461000000     1.355000000    -3.439000000
H     0.498000000     1.030000000    -2.318000000
O    -4.451000000     3.281000000    -2.912000000
H    -4.239000000     2.392000000    -2.628000000
H    -4.254000000     3.829000000    -2.153000000
O     7.969000000    -2.374000000    -0.921000000
H     7.048000000    -2.173000000    -1.086000000
H     7.948000000    -3.076000000    -0.270000000
O     4.067000000    -0.007000000     5.999000000
H     3.263000000    -0.129000000     6.503000000
H     4.022000000     0.897000000     5.690000000
O    -1.815000000    -3.795000000    -5.071000000
H    -1.349000000    -2.971000000    -5.216000000
H    -2.357000000    -3.630000000    -4.299000000
O    -1.483000000    -1.806000000     2.935000000
H    -1.195000000    -2.707000000     3.081000000
H    -1.298000000    -1.642000000     2.010000000
O    -0.886000000    -1.126000000    -4.985000000
H    -1.824000000    -0.953000000    -4.904000000
H    -0.595000000    -0.544000000    -5.686000000
O    -1.577000000     2.116000000    -4.743000000
H    -0.773000000     2.327000000    -4.268000000
H    -1.887000000     1.305000000    -4.340000000
O    -5.288000000     6.327000000     0.195000000
H    -4.433000000     5.898000000     0.184000000
H    -5.912000000     5.613000000     0.328000000
O     1.397000000    -3.028000000     6.200000000
H     0.883000000    -2.592000000     6.880000000
H     1.102000000    -2.626000000     5.383000000
O     4.323000000    -4.207000000     5.168000000
H     3.411000000    -4.178000000     4.879000000
H     4.658000000    -3.327000000     4.994000000
O     5.697000000    -2.971000000     0.978000000
H     6.312000000    -2.647000000     1.636000000
H     5.308000000    -2.181000000     0.604000000
O    -5.537000000     0.233000000     1.747000000
H    -6.193000000     0.362000000     2.432000000
H    -4.738000000     0.619000000     2.105000000
O     4.725000000    -2.283000000    -3.936000000
H     4.090000000    -2.980000000    -4.102000000
H     4.515000000    -1.608000000    -4.581000000
O    -3.783000000    -2.680000000     0.403000000
H    -3.887000000    -2.191000000    -0.413000000
H    -3.144000000    -3.362000000     0.194000000
O     6.909000000    -1.899000000     3.261000000
H     6.116000000    -1.412000000     3.481000000
H     7.125000000    -2.380000000     4.060000000
O    -3.331000000    -0.340000000    -3.726000000
H    -3.487000000    -1.232000000    -3.414000000
H    -3.248000000     0.182000000    -2.928000000
O    -1.985000000    -4.675000000    -0.844000000
H    -2.116000000    -5.560000000    -1.185000000
H    -1.068000000    -4.657000000    -0.569000000
O     0.993000000     4.767000000    -2.312000000
H     0.255000000     4.184000000    -2.491000000
H     1.767000000     4.215000000    -2.426000000
O    -5.148000000     3.365000000     0.245000000
H    -4.291000000     3.105000000    -0.094000000
H    -5.757000000     2.730000000    -0.132000000
O    -6.330000000     4.141000000     2.690000000
H    -5.797000000     4.237000000     3.480000000
H    -5.724000000     3.797000000     2.034000000
O     0.046000000     6.683000000    -0.879000000
H     0.218000000     5.850000000    -1.319000000
H     0.810000000     6.820000000    -0.318000000
O    -1.122000000     1.033000000     4.049000000
H    -0.969000000     0.347000000     3.399000000
H    -0.664000000     1.799000000     3.702000000
O    -2.504000000     7.061000000     2.535000000
H    -2.272000000     6.250000000     2.083000000
H    -1.666000000     7.498000000     2.688000000
O     2.292000000    -3.965000000    -1.804000000
H     1.693000000    -3.224000000    -1.904000000
H     2.679000000    -4.079000000    -2.672000000
O    -5.785000000     0.809000000    -4.036000000
H    -5.694000000     1.513000000    -3.394000000
H    -4.942000000     0.357000000    -4.017000000
O    -2.274000000     4.652000000     1.688000000
H    -1.564000000     4.288000000     2.217000000
H    -2.801000000     3.893000000     1.439000000
O     2.789000000     0.143000000    -3.523000000
H     3.356000000     0.072000000    -2.755000000
H     3.370000000    -0.025000000    -4.266000000
O    -2.903000000     4.517000000    -5.697000000
H    -3.599000000     3.951000000    -6.031000000
H    -2.351000000     3.935000000    -5.175000000
O     1.013000000    -2.142000000    -3.388000000
H     1.435000000    -1.305000000    -3.579000000
H     0.177000000    -2.101000000    -3.853000000
O    -2.399000000     5.520000000    -1.198000000
H    -1.714000000     6.107000000    -0.877000000
H    -2.247000000     4.697000000    -0.732000000
O    -3.732000000     1.406000000     3.242000000
H    -2.978000000     1.071000000     3.728000000
H    -3.922000000     2.252000000     3.650000000
