161
-3018.09703
C    -0.207000000     1.286000000     0.720000000
H    -0.450000000     2.136000000     1.351000000
C     0.798000000     0.284000000     1.005000000
H     1.456000000     0.411000000     1.860000000
C     0.902000000    -0.836000000     0.187000000
C     1.904000000    -1.899000000     0.524000000
H     1.777000000    -2.261000000     1.546000000
H     2.032000000    -2.732000000    -0.170000000
H     2.866000000    -1.392000000     0.626000000
C    -0.076000000    -1.018000000    -0.737000000
H    -0.028000000    -1.862000000    -1.420000000
C    -1.043000000    -0.123000000    -1.041000000
H    -1.738000000    -0.302000000    -1.858000000
C    -1.072000000     1.106000000    -0.391000000
C    -2.045000000     2.155000000    -0.690000000
O    -2.959000000     1.812000000    -1.374000000
O    -2.112000000     3.242000000    -0.140000000
O    -7.598000000     1.996000000     1.227000000
H    -6.651000000     2.001000000     1.088000000
H    -7.714000000     2.373000000     2.100000000
O     1.663000000    -1.304000000     4.193000000
H     1.299000000    -2.189000000     4.210000000
H     0.953000000    -0.758000000     3.856000000
O     1.569000000     5.036000000     4.400000000
H     2.180000000     4.453000000     4.850000000
H     1.944000000     5.910000000     4.514000000
O     0.676000000    -5.966000000    -2.063000000
H     0.037000000    -6.275000000    -2.705000000
H     1.000000000    -5.141000000    -2.426000000
O     2.821000000    -7.285000000     1.264000000
H     3.094000000    -6.765000000     2.020000000
H     3.573000000    -7.845000000     1.072000000
O    -2.926000000    -1.836000000    -4.292000000
H    -2.410000000    -2.497000000    -4.752000000
H    -3.437000000    -2.334000000    -3.653000000
O     4.662000000     0.804000000     3.696000000
H     4.832000000     0.732000000     2.757000000
H     3.718000000     0.953000000     3.758000000
O     4.243000000    -6.909000000    -0.952000000
H     4.600000000    -7.743000000    -0.647000000
H     3.454000000    -6.780000000    -0.427000000
O    -5.497000000     6.024000000     0.461000000
H    -5.526000000     5.829000000     1.398000000
H    -5.560000000     6.978000000     0.412000000
O    -5.433000000    -0.226000000     0.175000000
H    -4.889000000     0.424000000     0.619000000
H    -5.794000000    -0.760000000     0.883000000
O     5.460000000    -4.634000000    -1.882000000
H     5.014000000    -5.404000000    -1.529000000
H     4.752000000    -4.045000000    -2.142000000
O     3.573000000     3.025000000    -0.680000000
H     3.766000000     3.933000000    -0.912000000
H     3.668000000     2.996000000     0.272000000
O    -2.229000000    -1.484000000     1.193000000
H    -2.795000000    -0.902000000     1.701000000
H    -1.456000000    -0.954000000     0.998000000
O     2.186000000    -3.934000000    -4.000000000
H     2.740000000    -3.371000000    -3.459000000
H     1.583000000    -3.330000000    -4.433000000
O    -6.660000000     0.243000000    -2.842000000
H    -7.298000000    -0.471000000    -2.826000000
H    -5.860000000    -0.145000000    -2.487000000
O     0.762000000     4.795000000     1.685000000
H     1.220000000     4.093000000     1.223000000
H     0.980000000     4.657000000     2.607000000
O     0.302000000    -5.392000000     0.673000000
H     1.152000000    -5.473000000     1.106000000
H     0.514000000    -5.146000000    -0.228000000
O    -0.627000000     2.379000000     5.614000000
H     0.261000000     2.035000000     5.719000000
H    -1.043000000     2.228000000     6.463000000
O    -5.830000000     3.220000000    -3.240000000
H    -5.829000000     2.505000000    -2.604000000
H    -5.008000000     3.683000000    -3.081000000
O     2.033000000     1.264000000    -2.401000000
H     1.552000000     0.795000000    -1.718000000
H     2.425000000     2.010000000    -1.948000000
O    -1.775000000     3.961000000    -4.839000000
H    -2.540000000     4.091000000    -5.399000000
H    -1.962000000     3.153000000    -4.361000000
O     1.454000000    -3.757000000     5.174000000
H     0.774000000    -4.415000000     5.033000000
H     1.410000000    -3.563000000     6.110000000
O     4.377000000    -1.976000000     4.754000000
H     4.567000000    -1.148000000     4.312000000
H     3.446000000    -2.127000000     4.591000000
O     4.707000000     0.903000000     0.929000000
H     5.003000000     1.484000000     0.228000000
H     4.747000000     0.027000000     0.548000000
O    -1.241000000    -4.026000000     2.445000000
H    -0.872000000    -4.449000000     1.670000000
H    -1.644000000    -3.224000000     2.112000000
O    -3.549000000     0.500000000     2.926000000
H    -3.414000000     1.355000000     3.335000000
H    -4.395000000     0.204000000     3.262000000
O    -1.315000000     0.950000000    -6.245000000
H    -1.821000000     0.949000000    -5.432000000
H    -1.929000000     1.267000000    -6.908000000
O     2.360000000     0.887000000     5.728000000
H     3.036000000     0.470000000     6.263000000
H     1.959000000     0.166000000     5.244000000
O    -3.773000000     2.769000000     5.053000000
H    -3.627000000     3.487000000     4.438000000
H    -3.056000000     2.843000000     5.683000000
O    -3.105000000     6.591000000    -3.869000000
H    -3.293000000     5.989000000    -3.149000000
H    -3.845000000     6.487000000    -4.467000000
O     2.987000000    -5.438000000     3.307000000
H     2.594000000    -4.975000000     4.047000000
H     3.838000000    -5.017000000     3.186000000
O     5.362000000    -1.753000000    -0.217000000
H     6.298000000    -1.747000000    -0.017000000
H     4.971000000    -2.283000000     0.478000000
O    -4.783000000     2.656000000     0.442000000
H    -4.203000000     2.253000000    -0.204000000
H    -4.197000000     3.153000000     1.013000000
O    -0.854000000     6.784000000     3.071000000
H    -0.567000000     7.471000000     3.673000000
H    -0.353000000     6.012000000     3.333000000
O    -2.612000000    -3.170000000    -1.157000000
H    -3.456000000    -2.835000000    -1.461000000
H    -2.268000000    -2.476000000    -0.595000000
O    -5.223000000    -2.186000000    -1.934000000
H    -5.995000000    -2.750000000    -1.971000000
H    -5.273000000    -1.767000000    -1.075000000
O     4.316000000     3.733000000     2.088000000
H     5.179000000     3.724000000     1.674000000
H     4.499000000     3.852000000     3.020000000
O     4.827000000    -2.765000000     2.250000000
H     4.687000000    -2.493000000     3.157000000
H     5.099000000    -3.681000000     2.314000000
O    -3.086000000     1.085000000    -4.001000000
H    -3.406000000     0.210000000    -4.224000000
H    -3.097000000     1.107000000    -3.044000000
O     0.802000000     4.231000000    -3.956000000
H    -0.096000000     4.342000000    -4.268000000
H     0.883000000     3.292000000    -3.788000000
O    -3.932000000     4.808000000    -1.770000000
H    -3.243000000     4.182000000    -1.550000000
H    -4.257000000     5.114000000    -0.923000000
O    -0.718000000     0.144000000     3.981000000
H    -1.367000000     0.216000000     3.281000000
H    -0.898000000     0.891000000     4.552000000
O    -1.779000000     7.908000000    -1.703000000
H    -1.385000000     7.079000000    -1.433000000
H    -2.282000000     7.690000000    -2.488000000
O     0.551000000    -1.411000000    -4.439000000
H     1.096000000    -0.788000000    -4.919000000
H    -0.139000000    -0.875000000    -4.049000000
O    -0.810000000     5.631000000    -0.694000000
H    -0.413000000     5.456000000     0.159000000
H    -1.427000000     4.911000000    -0.823000000
O    -2.911000000    -5.971000000    -1.497000000
H    -3.399000000    -6.331000000    -0.757000000
H    -2.885000000    -5.029000000    -1.332000000
O     4.321000000    -2.269000000    -2.759000000
H     4.819000000    -1.923000000    -2.018000000
H     4.427000000    -1.611000000    -3.446000000
O    -3.171000000     3.722000000     2.313000000
H    -3.186000000     4.671000000     2.437000000
H    -2.438000000     3.571000000     1.716000000
