161
-3055.38918
C    -0.432000000     0.878000000     1.118000000
H    -0.715000000     1.535000000     1.936000000
C     0.633000000    -0.050000000     1.197000000
H     1.122000000    -0.272000000     2.143000000
C     0.916000000    -0.851000000     0.072000000
C     1.867000000    -1.983000000     0.097000000
H     2.338000000    -2.178000000    -0.869000000
H     2.760000000    -1.693000000     0.655000000
H     1.473000000    -2.926000000     0.481000000
C     0.287000000    -0.534000000    -1.080000000
H     0.550000000    -1.109000000    -1.965000000
C    -0.685000000     0.461000000    -1.189000000
H    -1.166000000     0.593000000    -2.155000000
C    -1.140000000     1.131000000    -0.066000000
C    -2.282000000     2.114000000    -0.116000000
O    -2.666000000     2.534000000    -1.159000000
O    -2.852000000     2.356000000     0.893000000
O     3.027000000     0.023000000    -3.121000000
H     3.223000000     0.846000000    -3.568000000
H     2.639000000    -0.531000000    -3.798000000
O     0.729000000    -4.155000000     3.178000000
H     1.544000000    -4.451000000     3.584000000
H     0.317000000    -3.602000000     3.842000000
O    -5.821000000     2.342000000     2.860000000
H    -6.042000000     1.562000000     3.368000000
H    -5.484000000     2.001000000     2.031000000
O    -1.271000000    -4.078000000    -4.323000000
H    -0.353000000    -4.048000000    -4.053000000
H    -1.544000000    -3.160000000    -4.345000000
O     4.680000000    -4.363000000     1.086000000
H     5.312000000    -3.763000000     1.481000000
H     4.480000000    -4.992000000     1.780000000
O    -3.899000000    -0.550000000    -3.143000000
H    -4.065000000    -0.180000000    -2.276000000
H    -4.377000000    -1.379000000    -3.145000000
O    -3.096000000    -3.601000000     3.434000000
H    -2.675000000    -2.910000000     2.923000000
H    -2.614000000    -4.396000000     3.206000000
O     2.625000000     0.508000000     4.053000000
H     2.811000000     1.333000000     3.604000000
H     1.797000000     0.664000000     4.507000000
O     2.104000000    -5.345000000    -0.502000000
H     2.745000000    -5.879000000    -0.970000000
H     2.619000000    -4.869000000     0.150000000
O    -5.099000000     1.245000000    -0.434000000
H    -5.894000000     1.695000000    -0.720000000
H    -4.384000000     1.792000000    -0.758000000
O     5.348000000    -4.022000000    -1.710000000
H     5.310000000    -3.876000000    -0.765000000
H     5.506000000    -3.153000000    -2.080000000
O     0.120000000     4.858000000     1.887000000
H     0.236000000     4.241000000     1.164000000
H     0.506000000     4.416000000     2.643000000
O    -1.940000000    -1.538000000     2.194000000
H    -1.019000000    -1.576000000     2.451000000
H    -2.117000000    -0.605000000     2.076000000
O     0.489000000     2.895000000    -5.157000000
H    -0.373000000     3.001000000    -4.754000000
H     0.434000000     3.389000000    -5.975000000
O     1.335000000    -3.507000000    -3.766000000
H     1.251000000    -2.669000000    -4.221000000
H     2.143000000    -3.425000000    -3.259000000
O    -4.158000000     1.324000000    -5.124000000
H    -3.891000000     0.623000000    -4.530000000
H    -4.563000000     0.871000000    -5.863000000
O    -0.574000000    -4.957000000    -0.323000000
H     0.370000000    -5.107000000    -0.383000000
H    -0.746000000    -4.259000000    -0.954000000
O     0.559000000     3.969000000     4.450000000
H     0.274000000     3.117000000     4.783000000
H     0.674000000     4.506000000     5.234000000
O    -5.669000000     3.677000000    -4.628000000
H    -5.150000000     2.921000000    -4.902000000
H    -5.443000000     3.801000000    -3.706000000
O     3.653000000     1.090000000    -0.146000000
H     3.176000000     0.765000000    -0.909000000
H     4.242000000     1.757000000    -0.499000000
O     3.849000000    -1.383000000     5.506000000
H     3.431000000    -0.798000000     4.874000000
H     3.493000000    -2.248000000     5.303000000
O     3.271000000     2.601000000     2.392000000
H     3.465000000     3.485000000     2.079000000
H     2.595000000     2.280000000     1.796000000
O     6.526000000     0.631000000    -1.133000000
H     7.198000000     0.661000000    -0.452000000
H     5.906000000     1.319000000    -0.889000000
O    -1.434000000    -5.874000000     2.027000000
H    -1.323000000    -5.778000000     1.081000000
H    -0.801000000    -5.265000000     2.405000000
O    -0.025000000    -7.442000000    -1.887000000
H    -0.749000000    -7.524000000    -1.266000000
H     0.255000000    -6.530000000    -1.810000000
O    -4.004000000     0.411000000     2.309000000
H    -4.083000000    -0.296000000     1.669000000
H    -3.557000000     1.114000000     1.837000000
O    -0.639000000     0.533000000    -6.148000000
H    -0.430000000     1.429000000    -5.885000000
H    -1.347000000     0.629000000    -6.784000000
O    -5.152000000     3.352000000     5.756000000
H    -5.477000000     4.252000000     5.723000000
H    -4.859000000     3.170000000     4.863000000
O    -0.290000000     1.616000000     5.144000000
H    -0.079000000     1.080000000     5.908000000
H    -1.118000000     1.258000000     4.822000000
O    -2.399000000     3.257000000     3.542000000
H    -2.250000000     3.434000000     2.613000000
H    -1.825000000     3.872000000     3.999000000
O    -3.856000000     7.105000000    -3.167000000
H    -4.810000000     7.080000000    -3.244000000
H    -3.622000000     6.246000000    -2.814000000
O     6.235000000    -2.231000000     1.727000000
H     7.170000000    -2.406000000     1.617000000
H     6.085000000    -2.315000000     2.669000000
O    -4.661000000     4.356000000     1.548000000
H    -3.984000000     3.712000000     1.336000000
H    -5.343000000     3.850000000     1.990000000
O    -3.131000000     6.573000000     2.324000000
H    -3.697000000     5.918000000     1.915000000
H    -2.417000000     6.697000000     1.698000000
O    -3.690000000    -3.611000000     0.369000000
H    -4.010000000    -2.719000000     0.230000000
H    -2.747000000    -3.510000000     0.501000000
O    -5.120000000    -1.159000000     0.447000000
H    -6.032000000    -1.444000000     0.511000000
H    -5.155000000    -0.362000000    -0.082000000
O    -2.018000000     2.709000000    -3.922000000
H    -2.780000000     2.981000000    -4.434000000
H    -2.387000000     2.361000000    -3.110000000
O     3.642000000    -6.210000000    -2.460000000
H     4.066000000    -5.358000000    -2.352000000
H     3.667000000    -6.372000000    -3.403000000
O     1.571000000     3.399000000    -0.648000000
H     0.840000000     3.725000000    -1.172000000
H     1.494000000     2.446000000    -0.696000000
O    -3.943000000     4.747000000    -1.798000000
H    -3.400000000     3.968000000    -1.678000000
H    -4.457000000     4.807000000    -0.993000000
O    -3.211000000     0.986000000     4.938000000
H    -3.782000000     0.535000000     4.316000000
H    -2.884000000     1.745000000     4.456000000
O     1.427000000    -1.318000000    -5.242000000
H     0.797000000    -0.675000000    -5.566000000
H     1.787000000    -1.720000000    -6.032000000
O    -1.905000000    -1.522000000    -4.985000000
H    -1.460000000    -1.177000000    -5.759000000
H    -2.084000000    -0.750000000    -4.448000000
O     0.121000000    -2.881000000     5.469000000
H    -0.678000000    -2.354000000     5.484000000
H     0.313000000    -3.052000000     6.391000000
O    -0.583000000     4.491000000    -1.660000000
H    -0.669000000     4.891000000    -2.525000000
H    -1.322000000     3.885000000    -1.601000000
O     5.769000000     0.694000000     1.422000000
H     5.844000000    -0.234000000     1.200000000
H     4.883000000     0.934000000     1.151000000
O     5.338000000    -1.400000000    -2.504000000
H     5.978000000    -0.917000000    -1.981000000
H     4.585000000    -0.811000000    -2.564000000
O    -0.902000000     6.645000000    -0.115000000
H    -0.809000000     5.841000000    -0.625000000
H    -0.374000000     6.494000000     0.669000000
