161
-3067.01379
C    -1.274000000    -0.735000000    -0.219000000
H    -2.121000000    -1.363000000    -0.482000000
C     0.033000000    -1.289000000    -0.228000000
H     0.221000000    -2.343000000    -0.417000000
C     1.135000000    -0.492000000     0.028000000
C     2.583000000    -1.058000000    -0.203000000
H     2.827000000    -1.959000000     0.364000000
H     2.753000000    -1.184000000    -1.275000000
H     3.330000000    -0.377000000     0.210000000
C     0.938000000     0.843000000     0.323000000
H     1.776000000     1.513000000     0.499000000
C    -0.376000000     1.342000000     0.380000000
H    -0.483000000     2.382000000     0.677000000
C    -1.519000000     0.585000000     0.076000000
C    -2.880000000     1.183000000     0.086000000
O    -3.041000000     2.378000000     0.284000000
O    -3.906000000     0.570000000    -0.098000000
O    -2.060000000     3.276000000     2.546000000
H    -2.581000000     3.073000000     1.769000000
H    -2.329000000     2.622000000     3.192000000
O     4.563000000     2.360000000     0.041000000
H     3.930000000     3.004000000     0.359000000
H     4.245000000     2.121000000    -0.830000000
O     4.364000000    -5.773000000     0.200000000
H     4.317000000    -6.702000000     0.428000000
H     4.655000000    -5.764000000    -0.711000000
O     1.281000000    -5.230000000     0.560000000
H     1.096000000    -4.597000000     1.254000000
H     2.231000000    -5.190000000     0.447000000
O     6.039000000     0.364000000    -4.025000000
H     6.481000000     0.279000000    -3.180000000
H     6.248000000    -0.447000000    -4.488000000
O     2.841000000    -0.632000000    -3.735000000
H     2.917000000    -1.014000000    -2.861000000
H     1.995000000    -0.185000000    -3.729000000
O     3.631000000     2.270000000    -2.513000000
H     4.022000000     1.600000000    -3.074000000
H     3.060000000     2.768000000    -3.097000000
O    -3.310000000    -3.045000000    -3.539000000
H    -3.710000000    -2.459000000    -2.897000000
H    -2.942000000    -2.459000000    -4.201000000
O    -2.346000000    -4.718000000    -1.573000000
H    -2.599000000    -4.026000000    -2.183000000
H    -1.493000000    -5.016000000    -1.889000000
O     7.392000000    -1.729000000    -1.661000000
H     7.204000000    -0.883000000    -1.254000000
H     8.344000000    -1.811000000    -1.615000000
O    -3.600000000     5.399000000     3.563000000
H    -4.343000000     5.138000000     3.018000000
H    -2.837000000     5.027000000     3.122000000
O    -4.249000000     4.281000000    -1.328000000
H    -5.149000000     3.959000000    -1.281000000
H    -3.754000000     3.693000000    -0.759000000
O    -7.292000000    -0.334000000    -2.360000000
H    -7.578000000     0.545000000    -2.605000000
H    -8.026000000    -0.695000000    -1.863000000
O     3.838000000    -1.098000000    -6.296000000
H     3.410000000    -0.259000000    -6.463000000
H     3.635000000    -1.293000000    -5.381000000
O     2.817000000    -4.018000000    -2.631000000
H     2.683000000    -4.301000000    -3.536000000
H     3.518000000    -3.369000000    -2.684000000
O     6.502000000     0.586000000    -0.936000000
H     7.127000000     1.310000000    -0.893000000
H     5.724000000     0.914000000    -0.486000000
O    -5.920000000     5.407000000     2.018000000
H    -6.592000000     5.582000000     2.677000000
H    -6.151000000     4.549000000     1.663000000
O    -5.647000000    -0.232000000     1.628000000
H    -6.328000000    -0.796000000     1.263000000
H    -5.055000000    -0.067000000     0.894000000
O     5.747000000    -1.347000000     3.090000000
H     6.660000000    -1.173000000     2.862000000
H     5.530000000    -2.150000000     2.617000000
O     5.194000000    -3.042000000     1.139000000
H     5.359000000    -3.985000000     1.152000000
H     5.853000000    -2.693000000     0.539000000
O    -2.466000000    -0.406000000    -5.411000000
H    -2.738000000     0.175000000    -6.121000000
H    -2.404000000     0.165000000    -4.645000000
O     1.873000000     4.976000000    -1.390000000
H     0.960000000     4.979000000    -1.103000000
H     2.378000000     4.878000000    -0.583000000
O     4.891000000     1.231000000     2.731000000
H     5.450000000     0.476000000     2.917000000
H     4.637000000     1.120000000     1.815000000
O     4.539000000    -5.496000000     2.982000000
H     4.444000000    -5.732000000     2.060000000
H     4.310000000    -6.294000000     3.458000000
O    -0.083000000    -0.604000000     2.817000000
H     0.011000000    -0.305000000     1.913000000
H    -0.902000000    -1.100000000     2.821000000
O     4.819000000    -2.196000000    -2.667000000
H     4.829000000    -1.353000000    -3.119000000
H     5.671000000    -2.246000000    -2.233000000
O    -5.864000000    -3.560000000     2.556000000
H    -5.234000000    -3.436000000     1.847000000
H    -5.349000000    -3.460000000     3.356000000
O     0.540000000     0.564000000    -3.307000000
H     0.952000000     1.418000000    -3.175000000
H    -0.211000000     0.566000000    -2.714000000
O    -2.097000000    -2.457000000     2.893000000
H    -1.897000000    -3.391000000     2.958000000
H    -2.960000000    -2.424000000     2.482000000
O    -2.808000000     1.839000000     4.647000000
H    -3.490000000     1.176000000     4.755000000
H    -2.256000000     1.743000000     5.424000000
O     2.744000000     2.047000000     4.228000000
H     3.347000000     1.889000000     3.501000000
H     2.352000000     2.898000000     4.034000000
O    -5.702000000     2.606000000     1.127000000
H    -5.795000000     1.720000000     1.477000000
H    -4.881000000     2.583000000     0.636000000
O    -1.967000000    -5.197000000     2.561000000
H    -1.256000000    -5.777000000     2.834000000
H    -1.997000000    -5.288000000     1.608000000
O    -2.289000000     4.208000000    -3.703000000
H    -3.023000000     4.426000000    -3.130000000
H    -1.760000000     5.006000000    -3.730000000
O     0.602000000     4.369000000     2.987000000
H    -0.145000000     3.781000000     2.874000000
H     0.218000000     5.246000000     2.984000000
O    -4.283000000    -3.671000000     0.092000000
H    -3.507000000    -4.010000000    -0.355000000
H    -4.984000000    -3.747000000    -0.554000000
O     7.158000000     2.433000000     1.506000000
H     6.985000000     3.316000000     1.178000000
H     6.319000000     2.140000000     1.861000000
O    -5.192000000     0.257000000     4.183000000
H    -5.224000000     0.236000000     3.227000000
H    -5.843000000     0.913000000     4.430000000
O     0.741000000    -3.385000000     2.580000000
H     1.401000000    -3.168000000     3.238000000
H     0.393000000    -2.538000000     2.301000000
O     2.929000000     4.779000000     1.165000000
H     3.627000000     4.936000000     1.801000000
H     2.166000000     4.555000000     1.697000000
O     0.572000000     0.319000000     5.142000000
H     1.278000000     0.965000000     5.124000000
H     0.415000000     0.110000000     4.221000000
O    -4.705000000    -1.053000000    -2.141000000
H    -5.621000000    -0.780000000    -2.200000000
H    -4.354000000    -0.555000000    -1.402000000
O    -3.171000000     6.854000000    -0.956000000
H    -3.622000000     6.013000000    -1.025000000
H    -3.660000000     7.334000000    -0.289000000
O    -2.806000000     1.271000000    -3.486000000
H    -2.899000000     2.219000000    -3.575000000
H    -3.009000000     1.095000000    -2.568000000
O     0.381000000    -5.123000000    -2.193000000
H     0.631000000    -5.487000000    -1.343000000
H     1.087000000    -4.514000000    -2.410000000
O     2.685000000    -3.291000000     4.510000000
H     3.191000000    -4.102000000     4.457000000
H     3.226000000    -2.706000000     5.040000000
O    -0.922000000     5.031000000    -0.654000000
H    -1.540000000     5.698000000    -0.955000000
H    -1.454000000     4.242000000    -0.547000000
O    -6.563000000     3.366000000    -1.504000000
H    -7.050000000     3.459000000    -0.685000000
H    -7.234000000     3.177000000    -2.161000000
