161
-3042.06359
C    -0.773000000    -0.687000000    -1.141000000
H    -1.247000000    -1.323000000    -1.883000000
C     0.542000000    -0.985000000    -0.727000000
H     0.917000000    -1.926000000    -1.121000000
C     1.139000000    -0.359000000     0.362000000
C     2.571000000    -0.734000000     0.880000000
H     2.677000000    -0.440000000     1.926000000
H     2.501000000    -1.822000000     0.834000000
H     3.347000000    -0.288000000     0.254000000
C     0.420000000     0.652000000     1.015000000
H     0.838000000     1.061000000     1.932000000
C    -0.830000000     1.091000000     0.562000000
H    -1.325000000     1.951000000     1.005000000
C    -1.392000000     0.494000000    -0.599000000
C    -2.739000000     1.015000000    -1.039000000
O    -3.228000000     2.006000000    -0.534000000
O    -3.413000000     0.300000000    -1.722000000
O    -2.946000000     2.047000000     2.734000000
H    -2.809000000     2.097000000     1.788000000
H    -3.361000000     1.195000000     2.871000000
O     4.667000000     3.332000000     2.388000000
H     3.849000000     3.827000000     2.334000000
H     4.782000000     2.962000000     1.513000000
O     2.568000000    -5.670000000     2.600000000
H     2.720000000    -5.463000000     1.678000000
H     3.400000000    -6.033000000     2.904000000
O     1.133000000    -3.385000000     2.015000000
H     1.583000000    -3.369000000     1.171000000
H     1.564000000    -4.087000000     2.503000000
O     6.425000000     1.047000000    -1.721000000
H     7.359000000     0.841000000    -1.681000000
H     6.286000000     1.355000000    -2.617000000
O     4.236000000    -1.379000000    -2.581000000
H     4.922000000    -1.645000000    -1.969000000
H     3.488000000    -1.163000000    -2.023000000
O     4.351000000     2.445000000    -0.314000000
H     3.486000000     2.572000000    -0.702000000
H     4.746000000     1.744000000    -0.834000000
O    -0.056000000    -4.008000000    -5.531000000
H    -0.967000000    -3.717000000    -5.491000000
H     0.433000000    -3.229000000    -5.796000000
O    -1.863000000    -4.999000000    -1.825000000
H    -1.565000000    -4.090000000    -1.842000000
H    -2.816000000    -4.940000000    -1.886000000
O    -3.583000000     4.485000000     3.888000000
H    -4.217000000     4.126000000     4.508000000
H    -3.363000000     3.749000000     3.316000000
O    -4.569000000     3.529000000    -2.594000000
H    -5.449000000     3.614000000    -2.228000000
H    -4.074000000     3.062000000    -1.921000000
O    -5.991000000     0.753000000    -2.012000000
H    -6.424000000     0.945000000    -1.181000000
H    -5.153000000     0.364000000    -1.762000000
O     2.437000000    -4.135000000    -0.435000000
H     2.030000000    -3.863000000    -1.257000000
H     3.255000000    -4.556000000    -0.700000000
O     7.581000000     1.988000000     0.745000000
H     7.648000000     2.943000000     0.723000000
H     6.910000000     1.780000000     0.096000000
O    -6.385000000    -1.440000000    -3.478000000
H    -6.313000000    -0.612000000    -3.003000000
H    -6.047000000    -1.244000000    -4.352000000
O    -4.050000000    -0.654000000     1.679000000
H    -3.125000000    -0.830000000     1.852000000
H    -4.266000000    -1.217000000     0.936000000
O     5.519000000    -0.319000000     4.846000000
H     6.214000000     0.139000000     5.320000000
H     5.971000000    -0.759000000     4.127000000
O     6.424000000    -1.997000000     2.408000000
H     7.188000000    -1.477000000     2.158000000
H     6.767000000    -2.646000000     3.022000000
O    -2.891000000    -1.263000000    -5.467000000
H    -1.972000000    -1.213000000    -5.730000000
H    -3.048000000    -0.448000000    -4.990000000
O    -1.204000000     6.329000000     0.719000000
H    -1.734000000     7.082000000     0.982000000
H    -1.821000000     5.597000000     0.702000000
O     3.627000000     1.327000000     3.934000000
H     4.197000000     0.635000000     4.268000000
H     4.222000000     1.937000000     3.497000000
O     2.566000000    -2.348000000     4.303000000
H     2.312000000    -2.351000000     3.380000000
H     3.501000000    -2.142000000     4.293000000
O    -1.609000000    -0.868000000     3.334000000
H    -0.774000000    -1.005000000     2.888000000
H    -1.375000000    -0.425000000     4.150000000
O     5.343000000    -2.065000000    -0.108000000
H     6.287000000    -2.197000000    -0.187000000
H     5.204000000    -1.881000000     0.821000000
O     0.636000000     0.744000000    -3.414000000
H     1.271000000     1.309000000    -2.973000000
H     0.035000000     0.473000000    -2.721000000
O    -3.372000000     2.569000000    -6.538000000
H    -3.369000000     2.734000000    -5.595000000
H    -2.597000000     2.029000000    -6.689000000
O    -4.325000000    -4.010000000     1.436000000
H    -3.524000000    -3.623000000     1.789000000
H    -4.201000000    -3.992000000     0.487000000
O     1.102000000     1.379000000     5.352000000
H     1.887000000     1.406000000     4.804000000
H     0.459000000     1.904000000     4.876000000
O    -5.782000000     1.325000000     0.708000000
H    -5.040000000     1.902000000     0.525000000
H    -5.405000000     0.601000000     1.208000000
O    -1.428000000    -4.728000000     2.050000000
H    -0.656000000    -4.162000000     2.072000000
H    -1.103000000    -5.564000000     1.716000000
O    -6.968000000     2.260000000    -4.360000000
H    -7.651000000     2.657000000    -3.821000000
H    -6.668000000     1.507000000    -3.851000000
O    -4.120000000     5.232000000    -4.727000000
H    -4.248000000     4.727000000    -3.923000000
H    -3.317000000     5.729000000    -4.572000000
O    -8.238000000     2.637000000     1.508000000
H    -8.563000000     1.906000000     2.034000000
H    -7.342000000     2.389000000     1.281000000
O     5.457000000    -4.843000000    -0.842000000
H     6.369000000    -5.055000000    -0.644000000
H     5.391000000    -3.901000000    -0.689000000
O     0.089000000    -0.935000000    -5.690000000
H    -0.137000000    -0.344000000    -6.409000000
H     0.389000000    -0.357000000    -4.990000000
O    -0.320000000     3.052000000     3.774000000
H    -1.274000000     3.027000000     3.705000000
H    -0.085000000     3.948000000     3.533000000
O    -4.555000000    -5.006000000    -1.697000000
H    -5.442000000    -5.342000000    -1.826000000
H    -4.671000000    -4.063000000    -1.576000000
O    -5.421000000     5.729000000     0.090000000
H    -5.767000000     5.314000000     0.880000000
H    -5.611000000     6.660000000     0.206000000
O     0.263000000    -1.320000000     5.389000000
H     1.039000000    -1.691000000     4.968000000
H     0.585000000    -0.539000000     5.840000000
O     1.920000000     4.418000000     1.686000000
H     1.364000000     3.639000000     1.720000000
H     1.593000000     4.977000000     2.390000000
O    -4.197000000    -2.081000000    -1.112000000
H    -4.879000000    -2.109000000    -1.783000000
H    -3.737000000    -1.257000000    -1.272000000
O     0.433000000     5.685000000    -1.268000000
H    -0.179000000     5.718000000    -0.533000000
H     0.581000000     6.602000000    -1.498000000
O    -3.880000000     1.015000000    -4.133000000
H    -4.289000000     1.838000000    -3.863000000
H    -3.803000000     0.510000000    -3.324000000
O     1.754000000    -6.845000000    -0.812000000
H     1.829000000    -5.972000000    -0.426000000
H     2.513000000    -7.322000000    -0.476000000
O     1.878000000    -3.681000000    -2.995000000
H     2.455000000    -3.391000000    -3.701000000
H     1.144000000    -4.103000000    -3.442000000
O     2.099000000     3.325000000    -2.131000000
H     2.709000000     3.794000000    -2.700000000
H     1.460000000     3.987000000    -1.868000000
O    -2.917000000     4.321000000     0.395000000
H    -3.051000000     3.499000000    -0.077000000
H    -3.677000000     4.856000000     0.164000000
O    -7.062000000     3.994000000    -1.705000000
H    -6.908000000     4.628000000    -1.004000000
H    -7.880000000     3.562000000    -1.462000000
