161
-3047.79043
C    -0.754000000    -0.492000000    -1.112000000
H    -1.211000000    -0.947000000    -1.987000000
C     0.212000000    -1.233000000    -0.464000000
H     0.594000000    -2.182000000    -0.832000000
C     0.839000000    -0.670000000     0.655000000
C     2.050000000    -1.327000000     1.173000000
H     2.681000000    -1.407000000     0.285000000
H     2.548000000    -0.710000000     1.924000000
H     1.736000000    -2.330000000     1.472000000
C     0.418000000     0.565000000     1.165000000
H     0.798000000     0.933000000     2.115000000
C    -0.548000000     1.291000000     0.469000000
H    -0.915000000     2.207000000     0.924000000
C    -1.196000000     0.771000000    -0.691000000
C    -2.123000000     1.646000000    -1.508000000
O    -2.459000000     2.716000000    -1.087000000
O    -2.670000000     1.174000000    -2.503000000
O    -0.087000000     1.816000000     4.468000000
H    -0.864000000     1.748000000     3.914000000
H     0.119000000     0.911000000     4.705000000
O     2.835000000     2.858000000     1.195000000
H     2.378000000     2.777000000     0.358000000
H     3.666000000     3.278000000     0.974000000
O     2.177000000    -6.385000000     2.900000000
H     2.273000000    -5.487000000     2.581000000
H     3.025000000    -6.592000000     3.292000000
O     4.623000000    -3.407000000    -3.614000000
H     3.679000000    -3.270000000    -3.532000000
H     4.951000000    -3.361000000    -2.716000000
O     3.414000000     2.312000000    -2.121000000
H     2.493000000     2.202000000    -1.884000000
H     3.671000000     1.464000000    -2.483000000
O    -0.329000000    -3.738000000    -3.083000000
H    -0.281000000    -4.164000000    -2.227000000
H    -1.262000000    -3.736000000    -3.298000000
O     1.840000000    -5.175000000    -4.003000000
H     2.341000000    -5.532000000    -3.270000000
H     0.950000000    -5.084000000    -3.663000000
O    -6.624000000     2.233000000    -1.200000000
H    -7.476000000     1.809000000    -1.300000000
H    -6.533000000     2.369000000    -0.257000000
O     0.243000000    -4.214000000     3.120000000
H     0.621000000    -3.948000000     3.958000000
H     0.042000000    -5.143000000     3.231000000
O    -3.146000000     3.169000000    -6.045000000
H    -2.715000000     3.851000000    -6.560000000
H    -3.248000000     3.554000000    -5.175000000
O     3.313000000     2.009000000     6.535000000
H     3.262000000     2.201000000     5.599000000
H     2.736000000     2.654000000     6.944000000
O    -4.815000000     3.436000000    -2.756000000
H    -5.489000000     2.909000000    -2.325000000
H    -3.999000000     3.180000000    -2.326000000
O    -1.380000000    -4.205000000    -6.032000000
H    -2.317000000    -4.367000000    -5.922000000
H    -1.159000000    -3.590000000    -5.333000000
O     2.767000000    -5.240000000    -0.991000000
H     3.231000000    -4.684000000    -0.365000000
H     3.227000000    -6.079000000    -0.952000000
O    -3.342000000    -0.927000000     1.328000000
H    -2.641000000    -1.572000000     1.237000000
H    -3.991000000    -1.183000000     0.672000000
O     5.266000000    -0.674000000     3.167000000
H     6.199000000    -0.754000000     3.367000000
H     5.242000000    -0.281000000     2.295000000
O    -2.645000000     7.139000000    -0.264000000
H    -2.352000000     8.048000000    -0.331000000
H    -2.457000000     6.894000000     0.643000000
O     3.437000000     1.735000000     3.811000000
H     4.053000000     1.008000000     3.897000000
H     3.382000000     1.891000000     2.868000000
O     1.992000000    -3.703000000     5.171000000
H     1.862000000    -4.310000000     5.900000000
H     2.785000000    -3.219000000     5.400000000
O    -1.502000000    -2.884000000     1.229000000
H    -1.098000000    -2.242000000     0.645000000
H    -0.763000000    -3.350000000     1.621000000
O     5.939000000    -2.070000000    -1.313000000
H     6.654000000    -2.287000000    -0.714000000
H     6.374000000    -1.866000000    -2.140000000
O     3.820000000    -1.819000000     5.703000000
H     3.925000000    -1.255000000     6.469000000
H     4.711000000    -1.953000000     5.380000000
O    -3.739000000     2.947000000     1.289000000
H    -3.167000000     3.175000000     0.556000000
H    -3.727000000     1.990000000     1.314000000
O    -2.618000000    -5.510000000     0.100000000
H    -2.749000000    -4.565000000     0.188000000
H    -1.668000000    -5.615000000     0.042000000
O     3.986000000    -0.243000000    -3.034000000
H     3.170000000    -0.727000000    -3.161000000
H     4.532000000    -0.828000000    -2.509000000
O     6.930000000    -3.596000000     2.211000000
H     6.007000000    -3.540000000     2.456000000
H     7.386000000    -3.772000000     3.034000000
O     0.563000000    -0.197000000    -5.481000000
H     1.166000000     0.462000000    -5.139000000
H    -0.308000000     0.167000000    -5.320000000
O    -5.197000000    -1.540000000    -0.531000000
H    -4.581000000    -1.356000000    -1.240000000
H    -6.060000000    -1.398000000    -0.921000000
O     1.185000000     3.909000000     3.010000000
H     1.774000000     3.807000000     2.263000000
H     1.173000000     3.047000000     3.426000000
O    -3.175000000    -3.760000000    -3.100000000
H    -3.772000000    -4.273000000    -2.554000000
H    -3.619000000    -2.919000000    -3.213000000
O     6.418000000     0.707000000     0.882000000
H     5.984000000     0.701000000     0.029000000
H     6.502000000     1.634000000     1.102000000
O    -2.654000000     0.140000000     3.653000000
H    -1.998000000    -0.547000000     3.774000000
H    -3.074000000    -0.074000000     2.820000000
O    -5.065000000     0.731000000    -4.670000000
H    -4.462000000     1.085000000    -4.017000000
H    -5.320000000     1.488000000    -5.197000000
O    -5.135000000     5.234000000    -4.662000000
H    -5.291000000     4.459000000    -4.121000000
H    -4.502000000     5.751000000    -4.163000000
O     1.259000000    -0.724000000     4.759000000
H     2.013000000    -1.309000000     4.685000000
H     1.619000000     0.151000000     4.615000000
O    -3.800000000    -1.039000000    -3.076000000
H    -4.136000000    -0.623000000    -3.870000000
H    -3.323000000    -0.343000000    -2.624000000
O     0.749000000     6.902000000    -1.319000000
H     0.588000000     7.835000000    -1.460000000
H    -0.117000000     6.534000000    -1.142000000
O    -2.847000000     5.269000000     2.304000000
H    -3.040000000     4.424000000     1.897000000
H    -3.705000000     5.632000000     2.522000000
O    -2.109000000     4.806000000    -3.777000000
H    -2.354000000     4.661000000    -2.863000000
H    -1.582000000     5.605000000    -3.761000000
O     4.045000000    -3.606000000     3.361000000
H     3.178000000    -3.847000000     3.687000000
H     4.080000000    -2.654000000     3.454000000
O    -0.456000000     6.242000000     3.248000000
H     0.157000000     5.518000000     3.121000000
H    -1.295000000     5.903000000     2.936000000
O     1.270000000     3.792000000    -4.973000000
H     1.129000000     4.418000000    -5.684000000
H     0.410000000     3.400000000    -4.825000000
O    -1.442000000     1.418000000    -4.839000000
H    -1.834000000     1.437000000    -3.966000000
H    -2.008000000     1.980000000    -5.368000000
O     0.052000000    -5.162000000    -0.832000000
H     1.009000000    -5.145000000    -0.840000000
H    -0.176000000    -6.032000000    -1.158000000
O    -6.693000000     5.785000000    -2.165000000
H    -6.231000000     4.961000000    -2.011000000
H    -6.002000000     6.410000000    -2.386000000
O     1.804000000    -1.739000000    -3.319000000
H     1.251000000    -0.999000000    -3.569000000
H     1.194000000    -2.470000000    -3.215000000
O     0.707000000     3.197000000    -2.257000000
H     0.194000000     4.002000000    -2.190000000
H     1.283000000     3.342000000    -3.007000000
O    -1.280000000     4.970000000    -1.003000000
H    -1.751000000     4.139000000    -0.950000000
H    -1.902000000     5.620000000    -0.676000000
