161
-3055.46961
C     0.254000000     0.097000000     1.457000000
H     0.420000000     0.346000000     2.502000000
C     0.198000000     1.150000000     0.513000000
H     0.325000000     2.179000000     0.840000000
C    -0.013000000     0.930000000    -0.851000000
C    -0.365000000     2.054000000    -1.745000000
H     0.628000000     2.385000000    -2.056000000
H    -0.977000000     1.816000000    -2.617000000
H    -0.919000000     2.794000000    -1.164000000
C    -0.114000000    -0.377000000    -1.267000000
H    -0.400000000    -0.518000000    -2.306000000
C     0.043000000    -1.434000000    -0.354000000
H    -0.075000000    -2.473000000    -0.653000000
C     0.178000000    -1.162000000     0.980000000
C     0.283000000    -2.311000000     1.996000000
O     0.327000000    -3.472000000     1.605000000
O     0.204000000    -1.998000000     3.121000000
O     2.290000000     1.208000000    -3.985000000
H     2.572000000     1.635000000    -4.794000000
H     1.337000000     1.163000000    -4.058000000
O    -1.980000000     5.353000000    -0.979000000
H    -1.559000000     5.464000000    -0.126000000
H    -2.632000000     4.667000000    -0.837000000
O    -3.589000000    -1.768000000    -0.526000000
H    -3.402000000    -1.772000000    -1.465000000
H    -3.145000000    -0.988000000    -0.196000000
O     1.441000000     4.508000000     0.469000000
H     1.538000000     4.504000000     1.422000000
H     2.213000000     4.041000000     0.149000000
O    -0.773000000     2.611000000     3.997000000
H     0.129000000     2.658000000     4.316000000
H    -1.013000000     1.689000000     4.094000000
O    -4.812000000    -1.707000000     2.047000000
H    -4.439000000    -1.034000000     1.478000000
H    -4.700000000    -1.361000000     2.933000000
O    -1.550000000     0.016000000     4.186000000
H    -1.232000000    -0.489000000     3.437000000
H    -1.828000000    -0.645000000     4.820000000
O    -2.571000000    -5.325000000    -1.996000000
H    -3.244000000    -5.194000000    -1.328000000
H    -2.605000000    -4.531000000    -2.529000000
O    -2.111000000    -4.715000000     1.477000000
H    -2.586000000    -4.351000000     0.730000000
H    -1.260000000    -4.278000000     1.455000000
O     0.403000000     1.854000000    -6.560000000
H     0.278000000     1.018000000    -6.112000000
H    -0.197000000     2.455000000    -6.119000000
O     2.385000000    -4.099000000     3.604000000
H     1.859000000    -3.515000000     3.058000000
H     1.788000000    -4.810000000     3.838000000
O     1.271000000    -0.765000000     6.655000000
H     2.041000000    -1.260000000     6.935000000
H     0.640000000    -1.433000000     6.388000000
O    -4.468000000     4.335000000    -1.835000000
H    -4.750000000     5.115000000    -2.311000000
H    -5.280000000     3.946000000    -1.510000000
O    -0.414000000    -0.234000000    -4.816000000
H    -0.151000000    -1.152000000    -4.751000000
H    -1.219000000    -0.251000000    -5.334000000
O    -3.032000000    -0.285000000    -2.729000000
H    -3.903000000     0.107000000    -2.677000000
H    -2.464000000     0.429000000    -3.017000000
O    -2.419000000    -2.744000000    -3.380000000
H    -2.616000000    -1.819000000    -3.238000000
H    -1.561000000    -2.744000000    -3.803000000
O    -2.196000000     4.096000000    -3.633000000
H    -2.314000000     3.148000000    -3.572000000
H    -2.739000000     4.451000000    -2.929000000
O     5.978000000     1.531000000     0.856000000
H     5.030000000     1.403000000     0.894000000
H     6.342000000     0.651000000     0.953000000
O    -2.759000000     0.378000000     0.946000000
H    -2.899000000     0.992000000     1.667000000
H    -1.858000000     0.539000000     0.666000000
O     1.436000000    -3.950000000     6.716000000
H     1.008000000    -3.362000000     6.094000000
H     1.926000000    -4.563000000     6.168000000
O    -2.507000000    -2.213000000    -6.059000000
H    -2.881000000    -2.634000000    -5.285000000
H    -3.265000000    -1.891000000    -6.547000000
O    -1.245000000     4.203000000    -6.149000000
H    -1.648000000     4.289000000    -5.285000000
H    -0.671000000     4.966000000    -6.222000000
O     3.533000000     0.928000000     1.090000000
H     2.632000000     1.074000000     0.802000000
H     3.463000000     0.248000000     1.760000000
O    -4.644000000    -4.495000000    -0.112000000
H    -4.326000000    -3.608000000     0.052000000
H    -5.305000000    -4.642000000     0.564000000
O     2.038000000     6.964000000    -0.778000000
H     1.367000000     6.898000000    -1.458000000
H     2.040000000     6.104000000    -0.359000000
O    -5.334000000     3.581000000     1.640000000
H    -4.558000000     3.076000000     1.882000000
H    -5.967000000     3.396000000     2.334000000
O     4.088000000    -2.491000000     0.201000000
H     4.754000000    -1.826000000     0.380000000
H     4.587000000    -3.262000000    -0.071000000
O    -1.456000000    -1.321000000     8.100000000
H    -1.217000000    -1.725000000     7.266000000
H    -2.408000000    -1.234000000     8.059000000
O     1.969000000     1.520000000     4.738000000
H     2.601000000     1.976000000     5.295000000
H     1.757000000     0.722000000     5.221000000
O     2.793000000    -6.977000000    -1.570000000
H     2.257000000    -6.667000000    -0.840000000
H     2.160000000    -7.228000000    -2.242000000
O    -3.435000000    -7.183000000     1.447000000
H    -2.615000000    -7.456000000     1.034000000
H    -3.270000000    -6.286000000     1.737000000
O     4.204000000    -2.395000000     4.605000000
H     3.721000000    -1.650000000     4.247000000
H     3.687000000    -3.160000000     4.351000000
O    -0.959000000     6.412000000     1.846000000
H    -0.324000000     6.761000000     1.221000000
H    -0.450000000     6.250000000     2.640000000
O    -2.867000000     1.691000000    -4.504000000
H    -2.860000000     1.809000000    -5.453000000
H    -3.795000000     1.686000000    -4.270000000
O    -2.494000000    -4.014000000     4.103000000
H    -2.422000000    -4.289000000     3.189000000
H    -3.201000000    -3.369000000     4.104000000
O     2.320000000     4.365000000     3.092000000
H     2.598000000     3.621000000     3.627000000
H     2.393000000     5.120000000     3.675000000
O    -3.294000000     2.388000000     3.023000000
H    -3.672000000     2.287000000     3.896000000
H    -2.366000000     2.559000000     3.182000000
O     3.703000000    -5.916000000     2.045000000
H     3.342000000    -5.199000000     2.567000000
H     4.278000000    -6.387000000     2.649000000
O     2.630000000    -2.953000000    -2.442000000
H     2.793000000    -2.017000000    -2.327000000
H     2.745000000    -3.325000000    -1.567000000
O     3.342000000    -0.301000000    -1.868000000
H     2.915000000     0.149000000    -1.139000000
H     3.074000000     0.192000000    -2.643000000
O    -0.837000000    -2.572000000     5.502000000
H    -1.475000000    -3.168000000     5.111000000
H    -0.212000000    -2.395000000     4.799000000
O     1.364000000    -5.710000000     0.554000000
H     2.223000000    -5.679000000     0.975000000
H     0.955000000    -4.875000000     0.784000000
O     2.633000000    -0.611000000     3.133000000
H     1.804000000    -1.088000000     3.147000000
H     2.406000000     0.273000000     3.423000000
O     0.284000000    -2.776000000    -4.256000000
H     1.056000000    -2.699000000    -3.695000000
H     0.247000000    -3.704000000    -4.486000000
O    -0.913000000    -7.648000000     0.761000000
H    -0.151000000    -7.090000000     0.913000000
H    -0.712000000    -8.113000000    -0.051000000
O     1.425000000    -6.209000000     4.701000000
H     2.291000000    -6.222000000     5.108000000
H     1.107000000    -7.108000000     4.784000000
O    -0.028000000     6.239000000    -2.459000000
H    -0.740000000     5.850000000    -1.951000000
H    -0.203000000     5.968000000    -3.361000000
O     3.833000000     3.289000000    -0.579000000
H     4.163000000     3.194000000    -1.472000000
H     4.090000000     2.477000000    -0.141000000
