161
-3048.16614
C    -1.137000000    -0.256000000    -0.839000000
H    -1.926000000    -0.464000000    -1.557000000
C     0.009000000    -1.018000000    -0.727000000
H     0.083000000    -1.945000000    -1.290000000
C     1.046000000    -0.684000000     0.064000000
C     2.236000000    -1.579000000     0.155000000
H     2.790000000    -1.610000000    -0.785000000
H     2.832000000    -1.294000000     1.025000000
H     1.905000000    -2.603000000     0.343000000
C     0.893000000     0.449000000     0.892000000
H     1.768000000     0.804000000     1.430000000
C    -0.268000000     1.241000000     0.855000000
H    -0.358000000     2.192000000     1.374000000
C    -1.229000000     0.924000000    -0.075000000
C    -2.576000000     1.689000000    -0.166000000
O    -2.605000000     2.851000000     0.201000000
O    -3.471000000     1.299000000    -0.895000000
O    -4.602000000     2.372000000     1.924000000
H    -3.882000000     2.638000000     1.351000000
H    -5.198000000     1.890000000     1.350000000
O    -1.157000000     5.143000000     4.715000000
H    -1.121000000     5.606000000     3.877000000
H    -2.064000000     4.847000000     4.786000000
O     2.303000000    -2.349000000     3.987000000
H     2.972000000    -1.665000000     4.024000000
H     2.798000000    -3.163000000     3.895000000
O    -0.103000000    -2.275000000     5.139000000
H    -0.316000000    -1.343000000     5.099000000
H     0.726000000    -2.352000000     4.667000000
O     1.784000000    -5.246000000     1.611000000
H     1.292000000    -4.563000000     2.067000000
H     1.374000000    -6.064000000     1.892000000
O     4.673000000    -2.936000000    -4.686000000
H     5.325000000    -2.699000000    -5.345000000
H     5.089000000    -2.725000000    -3.850000000
O     2.250000000     2.890000000    -2.943000000
H     2.384000000     2.845000000    -3.890000000
H     1.414000000     2.446000000    -2.798000000
O    -1.350000000    -3.915000000    -5.995000000
H    -1.668000000    -4.724000000    -5.595000000
H    -0.687000000    -3.591000000    -5.384000000
O    -0.869000000    -3.939000000     2.088000000
H    -1.222000000    -4.469000000     1.373000000
H    -1.279000000    -3.081000000     1.975000000
O     1.848000000    -5.418000000    -1.152000000
H     1.898000000    -5.507000000    -0.200000000
H     0.956000000    -5.116000000    -1.318000000
O    -2.500000000     0.158000000     4.776000000
H    -1.673000000     0.281000000     5.242000000
H    -3.151000000     0.042000000     5.468000000
O    -4.094000000     4.981000000     0.612000000
H    -3.364000000     4.411000000     0.371000000
H    -4.224000000     5.540000000    -0.153000000
O     4.432000000    -0.772000000     3.954000000
H     4.943000000    -0.213000000     4.539000000
H     4.645000000    -0.458000000     3.075000000
O    -4.844000000    -2.892000000    -2.196000000
H    -5.550000000    -3.451000000    -1.872000000
H    -4.715000000    -2.244000000    -1.504000000
O     4.401000000     1.476000000    -0.569000000
H     3.605000000     1.957000000    -0.798000000
H     4.366000000     0.686000000    -1.109000000
O    -3.757000000     5.865000000    -2.132000000
H    -3.247000000     6.654000000    -2.317000000
H    -3.102000000     5.205000000    -1.905000000
O     0.564000000     2.805000000     4.573000000
H     1.439000000     3.195000000     4.567000000
H     0.010000000     3.454000000     4.141000000
O    -4.968000000    -2.625000000    -4.890000000
H    -4.608000000    -1.778000000    -5.152000000
H    -5.043000000    -2.569000000    -3.937000000
O    -0.007000000     0.689000000     5.828000000
H     0.868000000     0.479000000     6.155000000
H     0.132000000     1.417000000     5.222000000
O    -1.892000000    -1.102000000     2.338000000
H    -1.233000000    -0.503000000     1.988000000
H    -2.170000000    -0.698000000     3.160000000
O     4.639000000    -5.458000000    -1.200000000
H     3.780000000    -5.061000000    -1.349000000
H     4.826000000    -5.284000000    -0.278000000
O    -6.831000000    -0.005000000     0.965000000
H    -6.248000000    -0.731000000     0.741000000
H    -7.629000000    -0.427000000     1.283000000
O    -2.935000000    -4.543000000     0.196000000
H    -3.402000000    -3.907000000     0.739000000
H    -3.586000000    -5.217000000     0.003000000
O    -3.321000000     3.612000000     4.722000000
H    -3.211000000     3.055000000     3.951000000
H    -4.080000000     3.245000000     5.176000000
O    -0.661000000    -4.977000000    -1.157000000
H    -1.290000000    -4.627000000    -0.525000000
H    -0.900000000    -4.564000000    -1.986000000
O     5.686000000    -1.710000000    -2.446000000
H     5.391000000    -1.676000000    -1.536000000
H     5.329000000    -0.916000000    -2.843000000
O     4.751000000     0.595000000    -3.754000000
H     5.387000000     1.306000000    -3.669000000
H     4.713000000     0.419000000    -4.694000000
O    -4.464000000    -0.986000000    -0.337000000
H    -4.156000000    -0.107000000    -0.557000000
H    -3.983000000    -1.217000000     0.457000000
O    -2.410000000    -3.187000000    -3.049000000
H    -2.789000000    -2.919000000    -3.886000000
H    -3.130000000    -3.106000000    -2.424000000
O     3.988000000     3.296000000     2.667000000
H     4.111000000     3.893000000     1.928000000
H     4.707000000     3.503000000     3.264000000
O    -3.874000000    -2.797000000     2.114000000
H    -4.466000000    -2.813000000     2.867000000
H    -3.164000000    -2.212000000     2.380000000
O    -7.640000000     1.044000000    -3.944000000
H    -7.082000000     1.138000000    -3.172000000
H    -8.462000000     1.467000000    -3.698000000
O    -7.100000000     3.830000000    -0.739000000
H    -7.487000000     4.270000000    -1.497000000
H    -6.761000000     3.006000000    -1.089000000
O    -6.256000000     1.394000000    -1.730000000
H    -5.300000000     1.425000000    -1.773000000
H    -6.443000000     0.915000000    -0.922000000
O    -4.212000000     6.847000000     2.927000000
H    -3.327000000     6.815000000     3.292000000
H    -4.268000000     6.072000000     2.367000000
O    -3.754000000     1.284000000    -3.679000000
H    -3.520000000     1.334000000    -2.752000000
H    -4.201000000     2.111000000    -3.859000000
O    -5.229000000     3.700000000    -3.613000000
H    -6.123000000     3.773000000    -3.949000000
H    -4.984000000     4.598000000    -3.389000000
O     1.839000000    -3.436000000    -4.916000000
H     2.786000000    -3.415000000    -5.052000000
H     1.655000000    -4.335000000    -4.647000000
O     5.196000000     0.256000000     1.782000000
H     4.737000000     0.862000000     1.201000000
H     5.464000000    -0.466000000     1.214000000
O    -1.297000000     6.219000000     2.112000000
H    -1.924000000     6.594000000     1.494000000
H    -0.584000000     5.894000000     1.563000000
O     5.577000000    -2.317000000     0.268000000
H     4.986000000    -3.030000000     0.512000000
H     6.439000000    -2.609000000     0.565000000
O    -3.425000000    -0.113000000    -5.927000000
H    -3.561000000     0.316000000    -5.082000000
H    -4.137000000     0.211000000    -6.478000000
O     4.525000000    -4.883000000     1.505000000
H     4.834000000    -4.706000000     2.394000000
H     3.575000000    -4.964000000     1.594000000
O     0.715000000     1.499000000    -5.582000000
H     1.647000000     1.650000000    -5.422000000
H     0.404000000     1.060000000    -4.791000000
O     0.937000000    -1.017000000    -3.625000000
H     1.243000000    -1.574000000    -4.341000000
H     1.011000000    -1.568000000    -2.845000000
O    -0.216000000     2.075000000    -2.674000000
H    -1.007000000     2.600000000    -2.547000000
H    -0.471000000     1.191000000    -2.409000000
O    -6.345000000     4.363000000     3.251000000
H    -5.691000000     3.878000000     2.747000000
H    -6.055000000     4.281000000     4.160000000
O    -1.460000000     4.579000000    -1.462000000
H    -1.693000000     3.891000000    -0.838000000
H    -0.895000000     5.170000000    -0.965000000
