161
-3050.79209
C    -1.115000000    -0.239000000    -1.054000000
H    -1.724000000    -0.523000000    -1.909000000
C     0.052000000    -1.044000000    -0.856000000
H     0.365000000    -1.794000000    -1.579000000
C     0.929000000    -0.803000000     0.181000000
C     2.224000000    -1.474000000     0.427000000
H     2.896000000    -1.395000000    -0.430000000
H     2.775000000    -1.129000000     1.305000000
H     2.048000000    -2.484000000     0.803000000
C     0.679000000     0.255000000     1.004000000
H     1.406000000     0.570000000     1.747000000
C    -0.450000000     1.071000000     0.820000000
H    -0.569000000     1.995000000     1.381000000
C    -1.310000000     0.834000000    -0.246000000
C    -2.435000000     1.792000000    -0.449000000
O    -2.438000000     2.872000000     0.101000000
O    -3.330000000     1.497000000    -1.250000000
O    -5.299000000     1.344000000     0.976000000
H    -4.767000000     0.793000000     1.551000000
H    -4.779000000     1.427000000     0.177000000
O    -3.909000000     6.330000000     3.138000000
H    -3.622000000     6.795000000     2.352000000
H    -3.464000000     5.484000000     3.091000000
O     0.895000000    -5.568000000     4.267000000
H     0.839000000    -5.587000000     3.312000000
H     0.187000000    -6.142000000     4.560000000
O     0.588000000    -2.516000000     3.275000000
H     1.033000000    -1.678000000     3.407000000
H     1.279000000    -3.171000000     3.370000000
O     1.167000000    -4.890000000    -1.735000000
H     1.744000000    -5.081000000    -0.996000000
H     0.344000000    -4.613000000    -1.331000000
O     3.113000000    -1.766000000    -3.980000000
H     2.874000000    -0.843000000    -4.062000000
H     3.949000000    -1.756000000    -3.513000000
O     3.519000000     1.458000000    -1.324000000
H     3.270000000     2.138000000    -1.950000000
H     2.765000000     1.385000000    -0.738000000
O    -1.585000000    -1.911000000     1.821000000
H    -1.242000000    -1.926000000     0.928000000
H    -0.831000000    -2.123000000     2.371000000
O     3.673000000    -4.572000000    -3.090000000
H     2.866000000    -4.109000000    -2.867000000
H     3.934000000    -4.206000000    -3.935000000
O     1.487000000     3.775000000     0.298000000
H     0.980000000     4.149000000    -0.423000000
H     1.229000000     4.288000000     1.064000000
O    -1.105000000     1.922000000     3.696000000
H    -0.620000000     2.321000000     4.418000000
H    -0.475000000     1.335000000     3.279000000
O    -0.599000000     0.472000000    -5.317000000
H    -1.529000000     0.667000000    -5.432000000
H    -0.547000000    -0.483000000    -5.354000000
O    -1.612000000     5.184000000    -4.123000000
H    -1.835000000     4.551000000    -3.441000000
H    -0.721000000     4.950000000    -4.385000000
O    -3.932000000     4.967000000    -0.770000000
H    -3.516000000     4.180000000    -0.417000000
H    -4.840000000     4.709000000    -0.925000000
O     2.016000000    -0.256000000     4.840000000
H     2.271000000     0.638000000     4.614000000
H     2.839000000    -0.744000000     4.853000000
O    -5.496000000    -4.230000000    -2.509000000
H    -5.804000000    -4.452000000    -1.630000000
H    -4.557000000    -4.079000000    -2.402000000
O     4.012000000     2.842000000     1.611000000
H     4.410000000     3.712000000     1.564000000
H     3.177000000     2.935000000     1.153000000
O     2.336000000     2.664000000     3.900000000
H     2.700000000     3.251000000     4.563000000
H     2.879000000     2.809000000     3.126000000
O    -3.555000000    -0.848000000    -3.966000000
H    -3.468000000    -0.351000000    -4.780000000
H    -4.089000000    -0.289000000    -3.401000000
O     0.195000000     0.216000000     6.845000000
H     0.542000000    -0.308000000     7.566000000
H     0.758000000     0.002000000     6.101000000
O    -3.137000000     0.266000000     2.570000000
H    -2.602000000    -0.321000000     2.036000000
H    -2.502000000     0.805000000     3.042000000
O     4.593000000    -4.197000000    -0.332000000
H     4.980000000    -3.797000000    -1.111000000
H     4.129000000    -4.966000000    -0.663000000
O    -6.275000000    -1.389000000    -0.471000000
H    -6.487000000    -0.760000000     0.219000000
H    -7.030000000    -1.978000000    -0.497000000
O    -1.405000000    -4.290000000    -0.516000000
H    -1.765000000    -5.153000000    -0.719000000
H    -2.137000000    -3.688000000    -0.649000000
O    -2.891000000     3.727000000     2.725000000
H    -3.121000000     3.267000000     1.918000000
H    -2.264000000     3.150000000     3.161000000
O    -0.130000000    -6.071000000    -3.791000000
H     0.446000000    -5.637000000    -3.161000000
H    -0.996000000    -5.704000000    -3.615000000
O     5.412000000    -1.988000000    -2.294000000
H     5.129000000    -1.193000000    -1.842000000
H     6.323000000    -1.817000000    -2.531000000
O     5.211000000    -0.174000000     4.969000000
H     5.343000000     0.090000000     4.059000000
H     6.019000000     0.086000000     5.413000000
O     3.481000000    -2.902000000     3.649000000
H     3.955000000    -2.754000000     4.468000000
H     3.515000000    -3.850000000     3.522000000
O    -4.143000000     4.654000000    -5.492000000
H    -3.620000000     4.211000000    -4.825000000
H    -5.049000000     4.519000000    -5.216000000
O    -3.672000000    -2.359000000    -1.290000000
H    -4.456000000    -2.154000000    -0.781000000
H    -3.906000000    -2.132000000    -2.191000000
O    -2.052000000    -3.075000000    -3.853000000
H    -2.556000000    -2.261000000    -3.855000000
H    -2.595000000    -3.694000000    -4.340000000
O     0.923000000     4.614000000     2.709000000
H     1.130000000     3.768000000     3.108000000
H     1.171000000     5.258000000     3.372000000
O    -6.577000000     3.249000000    -1.453000000
H    -7.179000000     3.472000000    -2.163000000
H    -6.673000000     2.302000000    -1.346000000
O    -5.499000000     0.554000000    -2.188000000
H    -4.697000000     0.935000000    -1.830000000
H    -5.751000000    -0.114000000    -1.550000000
O    -3.343000000     3.430000000    -2.959000000
H    -3.330000000     2.615000000    -2.457000000
H    -3.535000000     4.107000000    -2.311000000
O     0.231000000    -2.242000000    -5.111000000
H    -0.423000000    -2.770000000    -4.654000000
H     0.827000000    -1.949000000    -4.422000000
O     5.469000000     0.630000000     2.459000000
H     5.045000000     1.291000000     1.912000000
H     5.799000000    -0.019000000     1.837000000
O    -1.145000000     5.177000000     4.931000000
H    -0.720000000     4.420000000     5.335000000
H    -1.258000000     4.927000000     4.014000000
O    -2.808000000     7.098000000     0.462000000
H    -3.131000000     6.352000000    -0.043000000
H    -1.914000000     7.232000000     0.146000000
O    -6.537000000     1.601000000    -4.951000000
H    -6.972000000     0.831000000    -4.586000000
H    -5.888000000     1.845000000    -4.292000000
O     7.886000000    -1.115000000     1.911000000
H     7.031000000    -1.538000000     1.986000000
H     8.476000000    -1.676000000     2.415000000
O     5.454000000    -2.316000000     1.625000000
H     4.697000000    -2.656000000     2.102000000
H     5.496000000    -2.849000000     0.831000000
O     0.791000000    -6.573000000     1.408000000
H     1.498000000    -6.965000000     0.895000000
H     0.219000000    -6.167000000     0.756000000
O     2.775000000     1.057000000    -4.458000000
H     3.472000000     1.593000000    -4.081000000
H     1.968000000     1.429000000    -4.104000000
O     0.512000000     2.285000000    -3.142000000
H    -0.251000000     2.602000000    -2.659000000
H     0.208000000     1.488000000    -3.576000000
O    -7.469000000     2.662000000     1.411000000
H    -7.049000000     3.396000000     1.860000000
H    -6.742000000     2.114000000     1.115000000
O    -0.676000000     4.389000000    -1.452000000
H    -1.100000000     3.725000000    -0.909000000
H    -1.114000000     5.207000000    -1.215000000
