161
-3034.93360
C    -1.088000000    -0.757000000    -0.687000000
H    -1.790000000    -1.369000000    -1.247000000
C     0.294000000    -0.784000000    -1.026000000
H     0.667000000    -1.570000000    -1.677000000
C     1.187000000     0.005000000    -0.338000000
C     2.628000000    -0.081000000    -0.701000000
H     3.040000000    -1.079000000    -0.537000000
H     2.828000000     0.429000000    -1.645000000
H     3.188000000     0.566000000    -0.022000000
C     0.741000000     0.728000000     0.763000000
H     1.431000000     1.340000000     1.338000000
C    -0.566000000     0.774000000     1.067000000
H    -0.990000000     1.412000000     1.839000000
C    -1.540000000     0.124000000     0.348000000
C    -2.972000000     0.044000000     0.743000000
O    -3.232000000     0.040000000     1.907000000
O    -3.832000000     0.182000000    -0.124000000
O    -5.788000000     0.998000000     1.715000000
H    -6.411000000     0.363000000     1.362000000
H    -4.929000000     0.616000000     1.534000000
O    -4.657000000    -1.336000000     3.943000000
H    -5.044000000    -2.125000000     3.563000000
H    -4.130000000    -0.963000000     3.237000000
O     6.100000000    -3.235000000     1.309000000
H     6.988000000    -3.016000000     1.592000000
H     5.951000000    -4.117000000     1.650000000
O     5.212000000    -1.587000000    -3.475000000
H     5.363000000    -2.114000000    -2.690000000
H     4.274000000    -1.675000000    -3.646000000
O     5.765000000     0.719000000     2.013000000
H     6.596000000     1.028000000     2.373000000
H     5.631000000     1.251000000     1.228000000
O     6.945000000     2.747000000    -2.812000000
H     6.009000000     2.944000000    -2.787000000
H     7.135000000     2.376000000    -1.950000000
O     6.961000000    -1.075000000    -0.670000000
H     6.529000000    -1.912000000    -0.499000000
H     6.501000000    -0.449000000    -0.110000000
O    -3.517000000     0.268000000     5.710000000
H    -3.179000000     0.974000000     5.159000000
H    -4.035000000    -0.274000000     5.114000000
O    -0.571000000    -2.261000000    -4.420000000
H    -1.119000000    -1.479000000    -4.479000000
H    -1.014000000    -2.817000000    -3.780000000
O     1.359000000    -0.465000000     4.992000000
H     1.764000000    -0.306000000     4.140000000
H     1.100000000    -1.387000000     4.966000000
O    -3.690000000    -5.098000000    -4.208000000
H    -3.203000000    -4.446000000    -3.705000000
H    -4.270000000    -5.511000000    -3.567000000
O    -4.621000000     4.256000000     3.919000000
H    -3.949000000     3.591000000     3.771000000
H    -4.648000000     4.362000000     4.870000000
O    -3.322000000     5.199000000     0.295000000
H    -3.872000000     4.433000000     0.458000000
H    -2.873000000     5.002000000    -0.527000000
O    -7.321000000    -0.192000000    -3.730000000
H    -7.272000000    -0.967000000    -4.289000000
H    -6.413000000    -0.019000000    -3.480000000
O    -1.842000000    -3.114000000     1.438000000
H    -1.611000000    -2.194000000     1.309000000
H    -2.623000000    -3.243000000     0.899000000
O     5.424000000     2.568000000     0.112000000
H     4.762000000     2.603000000    -0.579000000
H     5.554000000     3.482000000     0.365000000
O     0.756000000    -1.810000000     2.560000000
H     1.133000000    -2.563000000     2.105000000
H     0.833000000    -1.089000000     1.935000000
O    -4.709000000    -0.350000000    -2.954000000
H    -4.030000000     0.151000000    -3.407000000
H    -4.445000000    -0.335000000    -2.034000000
O    -0.601000000     1.780000000     4.931000000
H     0.127000000     1.179000000     5.090000000
H    -0.410000000     2.539000000     5.481000000
O    -8.377000000    -0.329000000    -0.943000000
H    -8.297000000     0.200000000    -1.737000000
H    -8.613000000    -1.201000000    -1.258000000
O    -5.454000000    -3.429000000     2.525000000
H    -5.231000000    -4.292000000     2.176000000
H    -5.763000000    -2.936000000     1.765000000
O     1.583000000    -3.991000000     1.140000000
H     1.792000000    -4.100000000     0.213000000
H     1.793000000    -4.838000000     1.534000000
O    -2.864000000     2.009000000     3.644000000
H    -2.960000000     1.458000000     2.867000000
H    -2.029000000     1.739000000     4.027000000
O     2.427000000    -1.647000000    -4.255000000
H     1.487000000    -1.468000000    -4.235000000
H     2.833000000    -0.786000000    -4.352000000
O     1.275000000     2.102000000    -5.470000000
H     0.790000000     1.793000000    -4.705000000
H     2.169000000     1.789000000    -5.330000000
O    -5.934000000    -1.639000000    -0.169000000
H    -5.244000000    -0.976000000    -0.176000000
H    -6.706000000    -1.186000000    -0.509000000
O     0.300000000     4.513000000     3.575000000
H     0.316000000     3.687000000     4.059000000
H     1.149000000     4.914000000     3.759000000
O     2.846000000     3.711000000     2.084000000
H     3.611000000     4.159000000     2.445000000
H     2.853000000     2.850000000     2.503000000
O     3.902000000    -3.843000000     3.415000000
H     3.587000000    -4.698000000     3.123000000
H     3.913000000    -3.308000000     2.621000000
O    -1.962000000    -3.749000000    -2.637000000
H    -2.624000000    -3.597000000    -1.963000000
H    -1.485000000    -4.521000000    -2.334000000
O    -1.313000000     6.122000000     2.209000000
H    -0.750000000     5.529000000     2.706000000
H    -1.934000000     5.546000000     1.764000000
O    -7.660000000     1.003000000     3.827000000
H    -6.860000000     1.351000000     3.435000000
H    -8.281000000     1.730000000     3.792000000
O     2.422000000    -4.577000000    -1.694000000
H     2.864000000    -5.420000000    -1.796000000
H     1.774000000    -4.560000000    -2.398000000
O    -4.587000000     2.489000000    -1.086000000
H    -4.721000000     2.886000000    -0.226000000
H    -4.292000000     1.598000000    -0.895000000
O    -2.354000000     1.530000000    -3.360000000
H    -2.360000000     2.273000000    -2.756000000
H    -1.841000000     1.834000000    -4.109000000
O    -3.924000000    -3.525000000    -0.733000000
H    -4.732000000    -3.013000000    -0.739000000
H    -4.218000000    -4.436000000    -0.745000000
O    -7.151000000     2.711000000    -2.141000000
H    -6.857000000     3.593000000    -2.366000000
H    -6.357000000     2.259000000    -1.856000000
O     0.468000000     1.284000000    -3.077000000
H     0.428000000     0.586000000    -2.422000000
H     0.719000000     2.063000000    -2.581000000
O     3.104000000     1.226000000     3.285000000
H     3.647000000     1.455000000     4.039000000
H     3.650000000     0.635000000     2.767000000
O     1.750000000    -4.118000000    -4.600000000
H     1.995000000    -3.235000000    -4.324000000
H     1.367000000    -3.999000000    -5.469000000
O    -3.883000000    -2.009000000    -5.261000000
H    -4.161000000    -1.417000000    -5.959000000
H    -4.249000000    -1.627000000    -4.463000000
O     6.743000000    -1.379000000     3.744000000
H     6.059000000    -1.827000000     4.242000000
H     6.267000000    -0.833000000     3.119000000
O     5.079000000    -3.545000000    -1.333000000
H     4.179000000    -3.868000000    -1.282000000
H     5.358000000    -3.470000000    -0.421000000
O     1.569000000     3.762000000    -2.176000000
H     1.178000000     4.479000000    -2.675000000
H     1.239000000     3.880000000    -1.286000000
O     3.779000000     0.843000000    -4.499000000
H     4.476000000     0.947000000    -5.147000000
H     4.240000000     0.739000000    -3.666000000
O     4.295000000     3.315000000    -2.615000000
H     4.417000000     3.729000000    -3.469000000
H     3.422000000     3.593000000    -2.337000000
O    -5.112000000     3.386000000     1.486000000
H    -5.115000000     3.758000000     2.369000000
H    -5.466000000     2.504000000     1.597000000
O     0.776000000     4.310000000     0.343000000
H     1.336000000     4.260000000     1.118000000
H     0.008000000     4.802000000     0.634000000
