161
-3065.03328
C    -0.988000000    -0.109000000    -1.038000000
H    -1.683000000    -0.252000000    -1.862000000
C     0.228000000    -0.706000000    -1.116000000
H     0.547000000    -1.154000000    -2.054000000
C     1.104000000    -0.586000000     0.014000000
C     2.488000000    -0.951000000    -0.203000000
H     2.617000000    -1.918000000    -0.693000000
H     3.018000000    -0.243000000    -0.844000000
H     3.021000000    -0.938000000     0.750000000
C     0.697000000     0.210000000     1.131000000
H     1.444000000     0.456000000     1.882000000
C    -0.625000000     0.721000000     1.196000000
H    -0.981000000     1.282000000     2.057000000
C    -1.408000000     0.588000000     0.092000000
C    -2.769000000     1.072000000     0.203000000
O    -3.089000000     1.959000000     0.986000000
O    -3.627000000     0.572000000    -0.494000000
O    -5.501000000     1.209000000     2.083000000
H    -5.947000000     0.496000000     1.626000000
H    -4.668000000     1.307000000     1.621000000
O    -2.144000000    -3.585000000     1.555000000
H    -1.569000000    -3.802000000     0.822000000
H    -2.803000000    -3.002000000     1.178000000
O     5.957000000    -0.405000000     2.720000000
H     6.301000000     0.329000000     2.210000000
H     5.841000000    -0.050000000     3.601000000
O     4.244000000    -2.507000000    -5.631000000
H     3.403000000    -2.053000000    -5.675000000
H     4.480000000    -2.484000000    -4.704000000
O    -6.953000000     2.641000000    -3.639000000
H    -7.789000000     2.379000000    -3.252000000
H    -6.333000000     2.614000000    -2.910000000
O     5.282000000     1.521000000    -3.241000000
H     4.810000000     2.291000000    -3.558000000
H     5.853000000     1.858000000    -2.550000000
O     6.256000000    -0.846000000    -0.511000000
H     6.012000000     0.013000000    -0.165000000
H     6.498000000    -1.356000000     0.263000000
O    -6.770000000    -1.135000000     1.359000000
H    -7.334000000    -0.818000000     0.654000000
H    -6.407000000    -1.955000000     1.026000000
O    -4.524000000     0.257000000     4.994000000
H    -4.718000000    -0.676000000     5.087000000
H    -4.741000000     0.457000000     4.084000000
O     1.882000000    -1.099000000    -5.413000000
H     1.362000000    -0.377000000    -5.058000000
H     1.423000000    -1.888000000    -5.126000000
O     0.533000000    -2.341000000     3.470000000
H     1.294000000    -1.768000000     3.375000000
H     0.786000000    -3.151000000     3.029000000
O    -4.641000000     3.251000000     5.242000000
H    -3.845000000     3.041000000     4.753000000
H    -4.419000000     4.042000000     5.733000000
O    -1.757000000     4.551000000     0.479000000
H    -2.165000000     3.769000000     0.849000000
H    -2.195000000     4.675000000    -0.363000000
O    -5.996000000    -1.601000000    -3.054000000
H    -6.481000000    -1.684000000    -3.876000000
H    -5.408000000    -0.859000000    -3.197000000
O    -0.157000000    -4.476000000    -0.391000000
H     0.356000000    -4.676000000     0.392000000
H     0.429000000    -3.948000000    -0.933000000
O    -2.581000000     4.615000000    -1.920000000
H    -2.368000000     5.454000000    -2.330000000
H    -2.920000000     4.078000000    -2.636000000
O     5.861000000     1.564000000     0.696000000
H     5.237000000     2.151000000     1.123000000
H     6.354000000     2.131000000     0.102000000
O     1.380000000    -4.506000000     1.875000000
H     2.287000000    -4.595000000     1.583000000
H     1.009000000    -5.383000000     1.776000000
O    -3.979000000     0.151000000    -3.504000000
H    -4.243000000     1.040000000    -3.742000000
H    -3.490000000     0.256000000    -2.688000000
O    -0.666000000     0.073000000     5.000000000
H    -0.683000000    -0.654000000     4.377000000
H     0.043000000     0.636000000     4.692000000
O    -6.067000000    -2.977000000    -0.587000000
H    -5.979000000    -2.674000000    -1.491000000
H    -6.539000000    -3.807000000    -0.658000000
O    -2.810000000     2.513000000     3.513000000
H    -3.107000000     2.263000000     2.638000000
H    -2.475000000     1.701000000     3.894000000
O     4.624000000    -1.522000000    -2.876000000
H     4.227000000    -0.651000000    -2.896000000
H     5.281000000    -1.470000000    -2.182000000
O     3.125000000    -1.399000000     3.504000000
H     3.151000000    -2.317000000     3.775000000
H     3.853000000    -1.311000000     2.889000000
O     2.345000000     1.932000000    -5.815000000
H     1.608000000     1.379000000    -5.557000000
H     1.942000000     2.677000000    -6.260000000
O    -3.482000000    -2.144000000    -0.303000000
H    -3.487000000    -1.207000000    -0.497000000
H    -4.405000000    -2.398000000    -0.323000000
O     0.617000000     2.481000000     4.238000000
H     0.259000000     3.246000000     4.687000000
H     1.128000000     2.844000000     3.515000000
O     2.130000000     3.914000000     2.395000000
H     2.929000000     3.862000000     2.919000000
H     2.387000000     3.587000000     1.533000000
O     4.011000000    -4.866000000     1.118000000
H     4.220000000    -4.474000000     0.270000000
H     4.774000000    -5.405000000     1.327000000
O     0.752000000    -3.180000000    -3.687000000
H    -0.140000000    -2.982000000    -3.403000000
H     0.665000000    -3.973000000    -4.215000000
O    -2.243000000     5.096000000     3.855000000
H    -2.306000000     4.159000000     3.670000000
H    -2.336000000     5.516000000     3.000000000
O    -6.609000000     3.643000000     3.003000000
H    -6.632000000     2.736000000     2.700000000
H    -6.055000000     3.621000000     3.783000000
O     3.150000000    -6.378000000    -1.666000000
H     3.972000000    -6.747000000    -1.991000000
H     3.028000000    -5.579000000    -2.178000000
O    -5.467000000     2.159000000    -1.385000000
H    -5.341000000     2.946000000    -0.855000000
H    -4.832000000     1.532000000    -1.037000000
O    -4.124000000     6.579000000     1.460000000
H    -3.750000000     7.344000000     1.023000000
H    -4.268000000     5.947000000     0.756000000
O    -3.251000000     3.101000000    -4.279000000
H    -2.938000000     3.946000000    -4.600000000
H    -2.941000000     2.469000000    -4.927000000
O    -7.604000000    -0.151000000    -1.184000000
H    -7.181000000     0.707000000    -1.226000000
H    -6.922000000    -0.767000000    -1.452000000
O     4.332000000    -3.811000000     3.748000000
H     4.549000000    -4.120000000     2.868000000
H     4.647000000    -4.503000000     4.330000000
O    -1.847000000    -3.156000000    -2.724000000
H    -2.370000000    -2.418000000    -3.037000000
H    -2.239000000    -3.389000000    -1.883000000
O     0.027000000     0.785000000    -4.166000000
H    -0.776000000     1.027000000    -4.628000000
H    -0.028000000     1.250000000    -3.331000000
O     4.205000000     0.723000000     5.148000000
H     3.874000000    -0.055000000     4.700000000
H     3.422000000     1.234000000     5.351000000
O     3.312000000    -3.878000000    -2.767000000
H     3.873000000    -3.104000000    -2.713000000
H     2.471000000    -3.543000000    -3.077000000
O    -4.337000000    -1.722000000    -5.863000000
H    -4.352000000    -0.857000000    -6.273000000
H    -4.187000000    -1.544000000    -4.934000000
O    -2.327000000     1.313000000     6.772000000
H    -1.648000000     1.063000000     6.146000000
H    -3.131000000     0.931000000     6.418000000
O     0.163000000     3.224000000    -2.091000000
H     0.461000000     4.040000000    -2.491000000
H    -0.541000000     3.490000000    -1.499000000
O     2.368000000     3.112000000    -0.295000000
H     2.624000000     2.193000000    -0.215000000
H     1.868000000     3.150000000    -1.111000000
O    -5.130000000     3.940000000     0.475000000
H    -5.511000000     3.788000000     1.340000000
H    -4.224000000     3.644000000     0.556000000
O     0.650000000     5.783000000     0.838000000
H    -0.191000000     5.368000000     0.646000000
H     1.131000000     5.127000000     1.343000000
