161
-3030.38047
C    -0.127000000    -0.827000000    -1.197000000
H    -0.051000000    -1.416000000    -2.108000000
C     1.013000000    -0.685000000    -0.394000000
H     1.934000000    -1.200000000    -0.656000000
C     1.024000000     0.125000000     0.737000000
C     2.283000000     0.114000000     1.536000000
H     2.662000000    -0.903000000     1.652000000
H     3.023000000     0.826000000     1.163000000
H     2.099000000     0.525000000     2.530000000
C    -0.157000000     0.827000000     1.026000000
H    -0.209000000     1.469000000     1.902000000
C    -1.318000000     0.688000000     0.255000000
H    -2.186000000     1.292000000     0.506000000
C    -1.301000000    -0.090000000    -0.959000000
C    -2.551000000    -0.289000000    -1.756000000
O    -3.561000000     0.251000000    -1.336000000
O    -2.584000000    -0.701000000    -2.897000000
O    -5.095000000     1.150000000     2.829000000
H    -4.451000000     0.501000000     3.111000000
H    -5.023000000     1.854000000     3.474000000
O    -0.033000000     3.368000000    -1.285000000
H    -0.737000000     3.132000000    -1.889000000
H    -0.278000000     2.953000000    -0.458000000
O    -5.128000000    -2.746000000    -0.560000000
H    -5.075000000    -2.346000000     0.309000000
H    -4.773000000    -2.082000000    -1.151000000
O     0.981000000     4.303000000     1.965000000
H     1.873000000     3.982000000     1.833000000
H     0.891000000     4.373000000     2.916000000
O    -7.717000000    -0.495000000    -2.038000000
H    -7.133000000    -0.215000000    -2.743000000
H    -7.188000000    -0.417000000    -1.244000000
O    -6.805000000     3.380000000     1.611000000
H    -7.458000000     3.054000000     0.991000000
H    -6.265000000     2.616000000     1.813000000
O    -7.796000000    -1.419000000     1.218000000
H    -7.010000000    -1.296000000     0.685000000
H    -7.755000000    -0.718000000     1.869000000
O    -5.268000000    -2.425000000     2.216000000
H    -4.494000000    -1.957000000     2.529000000
H    -5.305000000    -3.215000000     2.755000000
O     0.344000000    -5.098000000     1.512000000
H     0.997000000    -4.869000000     0.851000000
H     0.650000000    -4.667000000     2.310000000
O     2.876000000     1.996000000     4.479000000
H     3.121000000     1.811000000     5.386000000
H     3.698000000     1.934000000     3.991000000
O    -0.393000000    -4.197000000    -1.653000000
H    -0.498000000    -5.085000000    -1.997000000
H     0.480000000    -3.930000000    -1.942000000
O    -4.712000000    -1.431000000    -5.008000000
H    -4.726000000    -0.825000000    -4.267000000
H    -3.813000000    -1.388000000    -5.335000000
O    -1.377000000     2.678000000    -3.464000000
H    -2.189000000     3.175000000    -3.564000000
H    -1.234000000     2.280000000    -4.323000000
O    -3.217000000    -5.241000000    -0.023000000
H    -2.787000000    -4.386000000    -0.006000000
H    -4.131000000    -5.054000000     0.189000000
O     2.977000000    -4.075000000     0.511000000
H     2.734000000    -4.359000000    -0.370000000
H     3.917000000    -3.902000000     0.456000000
O     7.128000000    -0.855000000    -0.891000000
H     6.657000000    -0.939000000    -0.062000000
H     7.098000000    -1.731000000    -1.274000000
O    -1.824000000    -0.646000000    -5.443000000
H    -1.644000000     0.284000000    -5.582000000
H    -2.041000000    -0.712000000    -4.513000000
O     5.788000000    -0.784000000     1.489000000
H     5.037000000    -1.319000000     1.747000000
H     5.708000000     0.011000000     2.017000000
O    -5.781000000     0.101000000     0.215000000
H    -4.966000000     0.332000000    -0.231000000
H    -5.500000000    -0.280000000     1.047000000
O     2.386000000    -2.859000000    -3.665000000
H     1.807000000    -2.380000000    -3.073000000
H     2.960000000    -2.188000000    -4.034000000
O     2.891000000    -1.739000000     6.292000000
H     1.974000000    -1.584000000     6.520000000
H     3.386000000    -1.371000000     7.024000000
O     5.700000000    -3.302000000     0.066000000
H     6.195000000    -3.129000000     0.867000000
H     6.316000000    -3.115000000    -0.642000000
O     0.422000000     0.923000000     5.005000000
H     1.144000000     1.454000000     4.667000000
H     0.352000000     0.194000000     4.388000000
O     5.203000000     2.527000000    -0.937000000
H     5.582000000     3.402000000    -1.023000000
H     4.270000000     2.652000000    -1.111000000
O    -2.565000000     2.345000000     3.561000000
H    -2.578000000     2.662000000     2.658000000
H    -1.636000000     2.238000000     3.765000000
O    -2.464000000     3.695000000     0.637000000
H    -2.160000000     4.560000000     0.362000000
H    -3.216000000     3.515000000     0.072000000
O     3.489000000     4.024000000     1.629000000
H     3.789000000     3.414000000     2.303000000
H     4.041000000     3.835000000     0.871000000
O     7.168000000     1.925000000     0.900000000
H     6.368000000     2.044000000     0.388000000
H     7.862000000     1.849000000     0.246000000
O     5.524000000     1.473000000     3.117000000
H     6.038000000     1.976000000     3.749000000
H     5.935000000     1.659000000     2.273000000
O    -5.503000000     0.737000000    -3.144000000
H    -4.674000000     0.721000000    -2.667000000
H    -5.525000000     1.601000000    -3.557000000
O    -2.531000000    -3.332000000    -3.224000000
H    -2.537000000    -2.384000000    -3.097000000
H    -1.882000000    -3.654000000    -2.599000000
O    -3.124000000    -4.941000000    -6.124000000
H    -4.071000000    -4.882000000    -6.251000000
H    -2.952000000    -4.405000000    -5.350000000
O    -0.110000000    -2.232000000    -6.699000000
H    -0.753000000    -1.711000000    -6.217000000
H    -0.631000000    -2.736000000    -7.324000000
O     2.170000000    -3.528000000     3.012000000
H     2.477000000    -3.471000000     2.107000000
H     2.933000000    -3.827000000     3.506000000
O     0.977000000     1.035000000    -3.407000000
H     1.020000000     1.947000000    -3.694000000
H     0.064000000     0.908000000    -3.147000000
O     3.557000000    -0.477000000    -4.450000000
H     2.697000000    -0.057000000    -4.467000000
H     4.177000000     0.250000000    -4.392000000
O     2.214000000    -5.053000000    -2.084000000
H     2.412000000    -4.623000000    -2.916000000
H     2.965000000    -5.625000000    -1.925000000
O    -3.503000000     5.850000000     3.172000000
H    -3.142000000     5.149000000     2.629000000
H    -4.151000000     5.416000000     3.726000000
O    -5.153000000    -3.868000000    -3.672000000
H    -4.227000000    -3.726000000    -3.479000000
H    -5.389000000    -3.148000000    -4.257000000
O     4.576000000    -2.612000000     4.410000000
H     3.886000000    -2.217000000     4.942000000
H     5.373000000    -2.150000000     4.669000000
O     6.742000000     1.079000000    -2.818000000
H     6.101000000     1.479000000    -2.230000000
H     7.031000000     0.291000000    -2.356000000
O    -3.020000000    -1.702000000     3.322000000
H    -2.843000000    -1.477000000     4.235000000
H    -2.173000000    -1.981000000     2.975000000
O    -1.533000000     2.094000000    -6.218000000
H    -2.253000000     2.565000000    -6.639000000
H    -0.744000000     2.445000000    -6.632000000
O    -4.427000000     2.752000000    -0.957000000
H    -5.213000000     2.948000000    -1.467000000
H    -4.132000000     1.903000000    -1.286000000
O     2.536000000     2.606000000    -1.374000000
H     1.618000000     2.851000000    -1.262000000
H     2.546000000     2.067000000    -2.165000000
O    -0.051000000    -1.924000000     4.318000000
H     0.664000000    -2.271000000     3.785000000
H    -0.287000000    -2.646000000     4.901000000
O    -7.749000000     2.391000000    -1.670000000
H    -8.601000000     2.031000000    -1.422000000
H    -7.272000000     1.646000000    -2.036000000
O    -1.012000000     6.200000000     0.716000000
H    -0.683000000     6.925000000     1.246000000
H    -0.264000000     5.611000000     0.624000000
