161
-3028.81976
C    -0.350000000    -1.448000000     0.170000000
H    -0.472000000    -2.483000000     0.478000000
C     0.897000000    -0.862000000     0.345000000
H     1.649000000    -1.433000000     0.882000000
C     1.119000000     0.492000000     0.109000000
C     2.510000000     1.072000000     0.447000000
H     3.185000000     0.685000000    -0.320000000
H     2.525000000     2.129000000     0.173000000
H     2.800000000     0.966000000     1.494000000
C     0.117000000     1.291000000    -0.387000000
H     0.232000000     2.371000000    -0.439000000
C    -1.172000000     0.704000000    -0.487000000
H    -2.023000000     1.271000000    -0.855000000
C    -1.431000000    -0.681000000    -0.222000000
C    -2.841000000    -1.227000000    -0.436000000
O    -3.647000000    -0.486000000    -0.900000000
O    -3.097000000    -2.361000000    -0.057000000
O     1.915000000     4.889000000     1.528000000
H     1.497000000     4.264000000     2.121000000
H     1.689000000     4.577000000     0.652000000
O    -6.172000000    -0.347000000    -3.207000000
H    -5.859000000     0.242000000    -3.893000000
H    -5.387000000    -0.574000000    -2.710000000
O    -3.823000000    -2.328000000     2.708000000
H    -3.281000000    -1.554000000     2.862000000
H    -3.717000000    -2.512000000     1.774000000
O     4.146000000     3.748000000     4.834000000
H     4.428000000     2.884000000     5.132000000
H     4.886000000     4.079000000     4.324000000
O    -5.551000000    -1.931000000     4.836000000
H    -6.397000000    -1.688000000     4.460000000
H    -4.933000000    -1.850000000     4.109000000
O     0.846000000     6.629000000    -2.512000000
H     1.650000000     6.154000000    -2.299000000
H     1.121000000     7.294000000    -3.142000000
O     0.936000000     1.373000000    -4.513000000
H     0.579000000     0.512000000    -4.298000000
H     0.166000000     1.922000000    -4.661000000
O     1.157000000    -4.059000000     3.547000000
H     0.218000000    -3.881000000     3.612000000
H     1.565000000    -3.400000000     4.108000000
O     6.649000000     1.362000000     1.004000000
H     6.646000000     2.036000000     1.684000000
H     6.373000000     1.821000000     0.211000000
O    -3.176000000    -7.315000000    -0.074000000
H    -3.598000000    -8.171000000    -0.004000000
H    -3.717000000    -6.832000000    -0.699000000
O    -3.938000000    -5.497000000     1.828000000
H    -3.894000000    -6.259000000     1.250000000
H    -4.712000000    -5.018000000     1.533000000
O     6.696000000    -1.085000000     2.733000000
H     7.398000000    -1.659000000     2.427000000
H     6.579000000    -0.451000000     2.025000000
O     4.493000000    -2.977000000     1.604000000
H     4.737000000    -2.650000000     2.470000000
H     4.768000000    -2.286000000     1.001000000
O     0.547000000    -0.962000000    -2.968000000
H     0.555000000    -0.663000000    -2.059000000
H    -0.069000000    -1.693000000    -2.975000000
O     3.632000000    -0.930000000    -3.749000000
H     3.332000000    -1.458000000    -3.010000000
H     2.954000000    -0.263000000    -3.858000000
O    -1.311000000    -3.185000000    -2.955000000
H    -1.519000000    -3.671000000    -3.752000000
H    -1.490000000    -3.801000000    -2.245000000
O     5.681000000     1.604000000    -1.684000000
H     6.310000000     1.647000000    -2.404000000
H     4.836000000     1.791000000    -2.092000000
O     2.925000000     2.938000000    -3.586000000
H     3.438000000     3.038000000    -4.388000000
H     2.159000000     2.431000000    -3.854000000
O    -6.414000000    -2.256000000     0.445000000
H    -5.953000000    -1.539000000     0.880000000
H    -6.903000000    -1.833000000    -0.261000000
O    -8.641000000     0.548000000    -2.277000000
H    -8.746000000     1.428000000    -1.915000000
H    -7.780000000     0.562000000    -2.695000000
O    -7.071000000    -2.807000000    -2.732000000
H    -6.947000000    -1.873000000    -2.898000000
H    -6.195000000    -3.132000000    -2.524000000
O    -7.482000000     0.970000000     2.806000000
H    -6.885000000     0.614000000     2.147000000
H    -7.793000000     1.792000000     2.428000000
O    -3.209000000     2.431000000     1.399000000
H    -2.659000000     1.650000000     1.457000000
H    -2.661000000     3.078000000     0.956000000
O    -1.924000000    -4.585000000    -0.549000000
H    -2.423000000    -3.791000000    -0.358000000
H    -2.312000000    -5.254000000     0.014000000
O     5.999000000    -1.929000000    -0.500000000
H     6.072000000    -1.080000000    -0.937000000
H     5.561000000    -2.491000000    -1.139000000
O    -0.237000000    -0.274000000     5.989000000
H     0.049000000    -0.629000000     5.147000000
H    -1.167000000    -0.086000000     5.866000000
O     3.922000000     6.468000000     1.708000000
H     3.193000000     5.851000000     1.652000000
H     4.026000000     6.633000000     2.645000000
O    -3.222000000    -0.963000000    -3.415000000
H    -3.515000000    -0.742000000    -2.531000000
H    -2.555000000    -1.638000000    -3.284000000
O     1.030000000    -5.927000000    -0.674000000
H     0.280000000    -5.336000000    -0.617000000
H     1.655000000    -5.584000000    -0.036000000
O     2.371000000    -1.869000000     4.763000000
H     3.087000000    -2.150000000     4.194000000
H     2.789000000    -1.699000000     5.607000000
O    -6.316000000    -4.886000000     0.914000000
H    -6.797000000    -5.404000000     0.269000000
H    -6.356000000    -3.990000000     0.579000000
O    -4.310000000     1.742000000    -2.149000000
H    -4.279000000     2.511000000    -1.581000000
H    -4.146000000     1.004000000    -1.563000000
O     2.697000000     5.149000000    -1.529000000
H     3.539000000     5.071000000    -1.082000000
H     2.633000000     4.356000000    -2.061000000
O    -2.001000000     4.583000000     0.047000000
H    -2.893000000     4.865000000     0.252000000
H    -1.514000000     5.398000000    -0.074000000
O    -4.375000000    -3.492000000    -2.281000000
H    -4.205000000    -4.424000000    -2.146000000
H    -4.108000000    -3.079000000    -1.460000000
O    -5.160000000     1.944000000    -4.821000000
H    -4.548000000     1.596000000    -5.470000000
H    -4.684000000     1.896000000    -3.993000000
O     0.214000000    -0.251000000     3.082000000
H     1.072000000    -0.340000000     3.498000000
H     0.410000000    -0.125000000     2.153000000
O     2.535000000    -4.990000000     1.441000000
H     2.056000000    -4.723000000     2.226000000
H     3.091000000    -4.239000000     1.233000000
O    -2.941000000     0.641000000    -5.863000000
H    -3.272000000     0.319000000    -5.025000000
H    -3.513000000     0.239000000    -6.517000000
O    -5.479000000     0.362000000     0.819000000
H    -4.783000000     0.013000000     0.262000000
H    -5.075000000     1.104000000     1.270000000
O    -4.594000000    -6.244000000    -2.038000000
H    -4.378000000    -6.919000000    -2.682000000
H    -5.550000000    -6.191000000    -2.059000000
O    -1.439000000    -4.127000000     4.067000000
H    -1.621000000    -4.953000000     4.515000000
H    -2.229000000    -3.953000000     3.555000000
O    -2.511000000     0.075000000     2.874000000
H    -1.590000000    -0.155000000     3.002000000
H    -2.826000000     0.297000000     3.750000000
O    -5.498000000     3.937000000    -0.647000000
H    -5.955000000     4.441000000    -1.321000000
H    -4.948000000     4.579000000    -0.199000000
O     5.783000000     5.466000000    -0.216000000
H     6.678000000     5.250000000     0.047000000
H     5.442000000     5.995000000     0.505000000
O     1.440000000     4.954000000     5.074000000
H     1.225000000     4.154000000     4.595000000
H     2.393000000     5.018000000     5.018000000
O    -1.932000000     6.617000000    -2.731000000
H    -2.248000000     6.800000000    -1.846000000
H    -1.028000000     6.327000000    -2.608000000
O    -0.375000000     4.203000000     3.095000000
H    -0.687000000     4.694000000     3.855000000
H    -1.109000000     4.221000000     2.481000000
