161
-3065.06116
C    -0.266000000    -1.206000000    -0.875000000
H    -0.376000000    -2.157000000    -1.390000000
C     0.956000000    -0.894000000    -0.242000000
H     1.798000000    -1.559000000    -0.421000000
C     1.074000000     0.270000000     0.490000000
C     2.421000000     0.606000000     1.209000000
H     2.371000000     0.401000000     2.280000000
H     3.316000000     0.132000000     0.801000000
H     2.558000000     1.681000000     1.072000000
C    -0.034000000     1.104000000     0.613000000
H     0.088000000     2.010000000     1.201000000
C    -1.259000000     0.758000000     0.085000000
H    -2.063000000     1.487000000     0.157000000
C    -1.356000000    -0.373000000    -0.749000000
C    -2.737000000    -0.710000000    -1.225000000
O    -3.600000000     0.142000000    -1.066000000
O    -2.899000000    -1.698000000    -1.934000000
O     4.466000000     3.157000000     0.557000000
H     5.068000000     2.672000000     1.121000000
H     4.780000000     4.061000000     0.593000000
O    -5.703000000    -1.403000000    -4.694000000
H    -4.788000000    -1.261000000    -4.938000000
H    -6.202000000    -0.882000000    -5.323000000
O    -4.161000000    -0.805000000     1.440000000
H    -4.042000000    -0.436000000     0.564000000
H    -4.489000000    -0.074000000     1.964000000
O     6.249000000     1.834000000     2.173000000
H     6.101000000     0.904000000     2.346000000
H     7.161000000     1.982000000     2.422000000
O    -6.027000000     3.853000000    -3.765000000
H    -6.483000000     3.273000000    -4.375000000
H    -5.339000000     3.308000000    -3.384000000
O    -5.651000000     2.824000000     1.389000000
H    -6.106000000     2.336000000     0.702000000
H    -5.705000000     3.737000000     1.109000000
O    -7.230000000     1.747000000    -0.694000000
H    -7.495000000     2.167000000    -1.512000000
H    -6.925000000     0.879000000    -0.958000000
O     2.318000000    -1.607000000    -4.361000000
H     2.611000000    -1.519000000    -3.454000000
H     1.947000000    -2.488000000    -4.408000000
O     0.625000000    -3.314000000     1.908000000
H     1.104000000    -2.944000000     1.166000000
H     0.310000000    -2.551000000     2.393000000
O    -2.883000000     0.472000000     5.168000000
H    -3.629000000     0.211000000     5.707000000
H    -3.272000000     0.955000000     4.438000000
O    -1.264000000    -4.472000000     0.261000000
H    -0.610000000    -3.985000000     0.763000000
H    -1.680000000    -5.047000000     0.904000000
O     3.630000000    -1.763000000    -1.882000000
H     3.664000000    -0.888000000    -1.495000000
H     3.667000000    -2.358000000    -1.133000000
O    -8.208000000    -1.694000000    -1.013000000
H    -7.378000000    -1.271000000    -1.229000000
H    -8.582000000    -1.934000000    -1.861000000
O     4.241000000     0.886000000    -1.581000000
H     4.389000000     1.401000000    -0.787000000
H     5.053000000     0.975000000    -2.080000000
O     0.811000000     1.814000000    -4.766000000
H     0.851000000     1.966000000    -3.822000000
H     0.253000000     1.041000000    -4.860000000
O     1.109000000    -4.323000000    -4.857000000
H     1.519000000    -5.187000000    -4.886000000
H     0.172000000    -4.505000000    -4.779000000
O     6.724000000    -2.177000000    -1.251000000
H     6.239000000    -2.812000000    -0.725000000
H     6.162000000    -2.014000000    -2.008000000
O     3.850000000     3.380000000    -3.143000000
H     4.138000000     4.059000000    -2.533000000
H     3.793000000     2.587000000    -2.610000000
O    -5.088000000    -3.419000000     1.388000000
H    -4.727000000    -3.717000000     0.553000000
H    -4.556000000    -2.658000000     1.621000000
O    -6.131000000    -0.294000000    -2.065000000
H    -5.214000000    -0.367000000    -1.802000000
H    -6.147000000    -0.609000000    -2.969000000
O    -5.639000000    -4.100000000    -5.080000000
H    -6.585000000    -4.099000000    -5.231000000
H    -5.440000000    -3.205000000    -4.806000000
O     5.875000000    -0.715000000     3.346000000
H     6.209000000    -1.604000000     3.470000000
H     5.271000000    -0.582000000     4.077000000
O    -5.767000000     0.049000000     3.973000000
H    -5.199000000     0.715000000     3.587000000
H    -6.511000000     0.541000000     4.321000000
O     4.483000000     5.519000000    -1.686000000
H     4.466000000     6.440000000    -1.948000000
H     4.500000000     5.542000000    -0.730000000
O    -1.593000000     3.236000000     2.667000000
H    -0.820000000     2.991000000     3.177000000
H    -1.289000000     3.940000000     2.095000000
O    -1.877000000    -4.014000000    -2.313000000
H    -2.266000000    -3.139000000    -2.338000000
H    -1.609000000    -4.131000000    -1.401000000
O    -1.116000000     6.291000000     3.543000000
H    -0.799000000     6.267000000     2.640000000
H    -2.053000000     6.110000000     3.472000000
O     3.564000000    -3.323000000     0.427000000
H     4.036000000    -4.082000000     0.085000000
H     3.494000000    -3.489000000     1.367000000
O    -0.710000000    -2.875000000     4.581000000
H    -0.889000000    -2.141000000     3.993000000
H    -1.252000000    -2.702000000     5.351000000
O    -1.865000000     4.226000000    -3.669000000
H    -1.279000000     4.983000000    -3.650000000
H    -1.885000000     3.961000000    -4.588000000
O    -0.189000000    -0.740000000    -5.605000000
H     0.357000000    -1.250000000    -5.007000000
H     0.116000000    -0.987000000    -6.478000000
O     4.475000000    -1.118000000     5.734000000
H     3.945000000    -1.814000000     6.121000000
H     3.948000000    -0.327000000     5.841000000
O    -4.536000000    -3.894000000    -1.276000000
H    -4.089000000    -4.631000000    -1.691000000
H    -4.021000000    -3.128000000    -1.529000000
O    -4.259000000     2.419000000    -2.273000000
H    -3.776000000     3.019000000    -1.704000000
H    -4.038000000     1.548000000    -1.945000000
O     1.910000000     4.349000000    -0.564000000
H     2.715000000     3.930000000    -0.258000000
H     1.616000000     3.798000000    -1.290000000
O    -0.023000000     5.646000000     1.008000000
H    -0.511000000     6.297000000     0.503000000
H     0.425000000     5.118000000     0.348000000
O    -2.985000000    -0.941000000    -4.532000000
H    -2.054000000    -0.766000000    -4.675000000
H    -3.008000000    -1.487000000    -3.747000000
O    -4.123000000     1.537000000    -4.931000000
H    -3.817000000     0.655000000    -4.721000000
H    -4.200000000     1.973000000    -4.082000000
O    -1.473000000    -1.252000000     2.636000000
H    -1.113000000    -0.607000000     2.027000000
H    -2.420000000    -1.197000000     2.511000000
O     2.556000000     6.273000000     2.935000000
H     1.761000000     5.915000000     2.540000000
H     2.889000000     5.565000000     3.486000000
O    -3.755000000     1.578000000     2.850000000
H    -4.426000000     2.109000000     2.422000000
H    -2.941000000     2.060000000     2.708000000
O    -1.605000000    -4.607000000    -5.002000000
H    -1.782000000    -4.300000000    -4.112000000
H    -1.557000000    -5.560000000    -4.921000000
O    -0.162000000     0.299000000     5.860000000
H     0.185000000    -0.474000000     5.415000000
H    -1.098000000     0.290000000     5.662000000
O    -2.647000000     4.089000000    -1.074000000
H    -2.636000000     4.883000000    -0.540000000
H    -2.575000000     4.406000000    -1.975000000
O     4.976000000    -2.569000000    -4.078000000
H     4.748000000    -2.065000000    -4.859000000
H     4.296000000    -2.346000000    -3.442000000
O     3.636000000     2.181000000     3.789000000
H     4.065000000     1.699000000     3.082000000
H     2.700000000     2.054000000     3.632000000
O     0.142000000     2.667000000    -2.109000000
H    -0.661000000     3.108000000    -2.387000000
H    -0.156000000     1.983000000    -1.508000000
O     0.592000000     2.473000000     4.360000000
H     0.927000000     3.330000000     4.622000000
H     0.088000000     2.171000000     5.115000000
