161
-3041.63346
C    -0.800000000    -0.374000000     1.147000000
H    -1.287000000    -0.624000000     2.086000000
C     0.269000000     0.492000000     1.173000000
H     0.558000000     1.046000000     2.062000000
C     0.946000000     0.828000000    -0.019000000
C     1.997000000     1.856000000    -0.010000000
H     2.647000000     1.500000000    -0.812000000
H     1.570000000     2.819000000    -0.298000000
H     2.593000000     1.826000000     0.904000000
C     0.524000000     0.275000000    -1.219000000
H     1.137000000     0.424000000    -2.104000000
C    -0.500000000    -0.660000000    -1.179000000
H    -0.795000000    -1.234000000    -2.054000000
C    -1.183000000    -1.030000000    -0.002000000
C    -2.305000000    -2.044000000     0.061000000
O    -2.504000000    -2.779000000    -0.846000000
O    -2.865000000    -2.329000000     1.110000000
O    -1.924000000    -7.517000000     1.108000000
H    -2.670000000    -7.872000000     0.625000000
H    -1.829000000    -6.623000000     0.779000000
O     5.090000000     0.621000000     3.722000000
H     4.183000000     0.336000000     3.832000000
H     5.579000000     0.124000000     4.377000000
O     1.670000000     2.795000000    -4.037000000
H     2.492000000     2.435000000    -4.371000000
H     1.938000000     3.519000000    -3.471000000
O    -4.596000000    -5.919000000     3.231000000
H    -4.591000000    -6.701000000     2.679000000
H    -3.678000000    -5.784000000     3.465000000
O    -0.723000000     5.148000000     4.160000000
H    -1.195000000     5.292000000     4.980000000
H    -1.178000000     4.414000000     3.748000000
O     5.747000000     4.474000000    -2.783000000
H     6.057000000     3.573000000    -2.693000000
H     6.454000000     4.927000000    -3.241000000
O    -7.555000000    -2.728000000     0.671000000
H    -6.635000000    -2.994000000     0.665000000
H    -7.942000000    -3.221000000     1.395000000
O    -2.503000000     0.920000000     5.221000000
H    -3.063000000     0.147000000     5.144000000
H    -3.064000000     1.583000000     5.622000000
O     4.988000000     3.456000000     2.736000000
H     5.127000000     2.613000000     3.167000000
H     4.209000000     3.816000000     3.160000000
O     4.549000000    -0.523000000    -1.938000000
H     4.190000000    -0.268000000    -2.788000000
H     4.365000000    -1.460000000    -1.873000000
O    -1.539000000    -4.818000000     0.777000000
H    -2.122000000    -4.064000000     0.866000000
H    -0.663000000    -4.438000000     0.713000000
O     0.099000000    -0.432000000     5.169000000
H     0.066000000    -1.288000000     5.595000000
H    -0.750000000    -0.035000000     5.364000000
O     2.668000000    -0.411000000     3.930000000
H     2.081000000     0.017000000     4.553000000
H     2.102000000    -1.005000000     3.438000000
O    -0.916000000     1.858000000    -3.241000000
H    -0.098000000     2.257000000    -3.536000000
H    -0.653000000     1.265000000    -2.537000000
O    -3.986000000    -5.187000000    -1.420000000
H    -4.519000000    -5.093000000    -0.631000000
H    -3.280000000    -4.550000000    -1.310000000
O     1.748000000    -3.266000000     3.000000000
H     2.331000000    -3.510000000     3.719000000
H     1.828000000    -3.985000000     2.373000000
O    -3.219000000    -1.147000000    -5.666000000
H    -3.153000000    -0.300000000    -5.224000000
H    -4.151000000    -1.244000000    -5.859000000
O    -3.219000000     1.341000000    -4.443000000
H    -2.383000000     1.405000000    -3.981000000
H    -3.877000000     1.341000000    -3.748000000
O    -2.032000000     2.815000000     3.235000000
H    -2.841000000     2.891000000     2.728000000
H    -2.111000000     1.975000000     3.688000000
O    -2.086000000     6.075000000    -1.158000000
H    -2.323000000     5.678000000    -0.320000000
H    -1.643000000     5.376000000    -1.638000000
O    -5.707000000    -0.514000000    -1.091000000
H    -4.958000000    -0.996000000    -1.440000000
H    -5.664000000    -0.655000000    -0.146000000
O    -2.089000000    -2.698000000     3.586000000
H    -2.341000000    -2.711000000     2.663000000
H    -1.187000000    -3.018000000     3.592000000
O    -6.394000000    -3.322000000     3.480000000
H    -6.275000000    -4.241000000     3.720000000
H    -5.719000000    -2.856000000     3.974000000
O     1.982000000    -2.666000000     0.115000000
H     1.188000000    -2.490000000    -0.389000000
H     1.810000000    -2.281000000     0.975000000
O     1.096000000     1.228000000    -6.891000000
H     1.991000000     1.467000000    -7.129000000
H     1.012000000     1.494000000    -5.975000000
O    -4.042000000    -2.181000000    -2.961000000
H    -3.296000000    -2.505000000    -2.458000000
H    -3.678000000    -1.970000000    -3.821000000
O     6.398000000     2.967000000     0.081000000
H     5.875000000     3.588000000     0.587000000
H     6.948000000     2.531000000     0.732000000
O     0.827000000     2.125000000     4.295000000
H     0.526000000     1.245000000     4.521000000
H     0.149000000     2.467000000     3.713000000
O    -4.786000000    -3.874000000     1.003000000
H    -4.129000000    -3.179000000     1.045000000
H    -4.666000000    -4.365000000     1.817000000
O    -1.624000000    -3.438000000    -5.623000000
H    -2.003000000    -2.562000000    -5.694000000
H    -2.338000000    -3.982000000    -5.290000000
O    -6.743000000    -3.073000000    -2.665000000
H    -5.839000000    -2.775000000    -2.559000000
H    -7.257000000    -2.268000000    -2.716000000
O    -0.180000000    -6.458000000    -1.897000000
H     0.588000000    -6.737000000    -2.395000000
H    -0.663000000    -7.268000000    -1.729000000
O     0.658000000     7.936000000     0.477000000
H     0.767000000     6.985000000     0.455000000
H     0.393000000     8.167000000    -0.413000000
O     7.170000000    -0.941000000    -0.674000000
H     6.252000000    -0.898000000    -0.940000000
H     7.154000000    -0.785000000     0.270000000
O     2.972000000     4.781000000    -2.031000000
H     2.800000000     5.713000000    -2.167000000
H     3.634000000     4.562000000    -2.686000000
O     3.479000000    -1.982000000    -4.524000000
H     2.983000000    -2.733000000    -4.197000000
H     3.013000000    -1.714000000    -5.316000000
O    -4.346000000    -1.805000000     4.880000000
H    -3.482000000    -2.095000000     4.585000000
H    -4.410000000    -2.123000000     5.780000000
O    -4.581000000    -0.629000000     2.098000000
H    -3.798000000    -1.014000000     1.702000000
H    -5.060000000    -1.377000000     2.455000000
O     6.845000000    -0.564000000     1.960000000
H     6.131000000    -0.075000000     2.370000000
H     7.209000000    -1.094000000     2.669000000
O     0.502000000    -5.194000000    -4.513000000
H    -0.154000000    -5.788000000    -4.150000000
H    -0.008000000    -4.493000000    -4.920000000
O     4.228000000     5.113000000     0.175000000
H     4.156000000     4.769000000    -0.715000000
H     3.768000000     4.473000000     0.718000000
O    -0.236000000    -3.727000000    -1.742000000
H    -0.309000000    -4.679000000    -1.805000000
H    -1.137000000    -3.426000000    -1.620000000
O     1.087000000     5.341000000     0.022000000
H     0.668000000     4.480000000     0.026000000
H     1.753000000     5.280000000    -0.663000000
O     6.474000000     1.774000000    -2.568000000
H     5.843000000     1.059000000    -2.645000000
H     6.407000000     2.056000000    -1.656000000
O    -1.150000000     3.313000000     0.411000000
H    -2.051000000     3.119000000     0.151000000
H    -1.086000000     2.990000000     1.310000000
O     2.451000000    -4.065000000    -2.774000000
H     1.898000000    -3.695000000    -2.085000000
H     1.844000000    -4.546000000    -3.336000000
O     4.014000000     1.491000000    -5.176000000
H     4.289000000     0.609000000    -5.425000000
H     4.620000000     2.071000000    -5.638000000
O     2.167000000     5.571000000     2.549000000
H     1.284000000     5.546000000     2.916000000
H     2.033000000     5.533000000     1.601000000
