161
-3057.30897
C    -0.350000000    -1.125000000     0.909000000
H    -0.705000000    -1.828000000     1.658000000
C     0.588000000    -0.164000000     1.188000000
H     1.131000000    -0.103000000     2.127000000
C     0.799000000     0.871000000     0.245000000
C     1.879000000     1.987000000     0.508000000
H     1.983000000     2.141000000     1.584000000
H     2.834000000     1.770000000     0.024000000
H     1.501000000     2.967000000     0.207000000
C     0.174000000     0.852000000    -1.021000000
H     0.406000000     1.496000000    -1.865000000
C    -0.703000000    -0.145000000    -1.249000000
H    -1.279000000    -0.174000000    -2.171000000
C    -1.053000000    -1.101000000    -0.288000000
C    -2.119000000    -2.174000000    -0.556000000
O    -2.742000000    -2.219000000    -1.617000000
O    -2.351000000    -3.043000000     0.325000000
O     2.923000000     2.306000000     4.655000000
H     2.877000000     1.353000000     4.736000000
H     3.860000000     2.503000000     4.678000000
O    -0.761000000     4.085000000    -3.466000000
H    -1.701000000     4.074000000    -3.648000000
H    -0.522000000     3.162000000    -3.384000000
O     0.032000000     1.523000000    -5.104000000
H    -0.647000000     0.849000000    -5.093000000
H    -0.047000000     1.928000000    -5.968000000
O     5.631000000     2.608000000    -1.918000000
H     6.404000000     3.124000000    -2.150000000
H     5.943000000     1.996000000    -1.252000000
O    -1.005000000     4.543000000     2.055000000
H    -1.801000000     4.061000000     2.275000000
H    -0.338000000     4.186000000     2.641000000
O     2.587000000    -1.579000000     3.295000000
H     2.570000000    -1.062000000     4.100000000
H     1.804000000    -2.128000000     3.345000000
O     5.177000000    -2.313000000     4.054000000
H     4.472000000    -2.217000000     3.414000000
H     4.810000000    -2.884000000     4.729000000
O     4.025000000     5.678000000    -2.009000000
H     4.872000000     6.058000000    -2.242000000
H     4.203000000     4.745000000    -1.898000000
O    -6.163000000    -2.509000000    -0.326000000
H    -5.514000000    -2.406000000     0.370000000
H    -6.663000000    -1.694000000    -0.310000000
O     3.553000000     6.541000000     4.350000000
H     3.146000000     6.006000000     3.669000000
H     3.257000000     7.432000000     4.164000000
O     2.657000000    -1.379000000    -1.253000000
H     2.320000000    -1.219000000    -2.135000000
H     1.945000000    -1.113000000    -0.672000000
O    -1.265000000     0.037000000     3.743000000
H    -1.592000000     0.817000000     3.294000000
H    -0.572000000    -0.294000000     3.172000000
O    -3.757000000    -5.325000000     0.648000000
H    -4.185000000    -4.855000000     1.363000000
H    -2.939000000    -4.849000000     0.504000000
O    -4.580000000     0.099000000    -0.002000000
H    -4.923000000    -0.398000000     0.741000000
H    -4.297000000    -0.569000000    -0.626000000
O     3.392000000    -0.144000000     5.503000000
H     4.334000000    -0.269000000     5.391000000
H     3.306000000     0.274000000     6.360000000
O     0.155000000    -6.706000000    -0.595000000
H     0.246000000    -6.109000000     0.148000000
H    -0.330000000    -7.453000000    -0.244000000
O    -4.502000000    -5.880000000    -4.278000000
H    -4.872000000    -6.703000000    -3.961000000
H    -3.918000000    -5.593000000    -3.575000000
O     1.335000000     4.227000000     3.737000000
H     1.646000000     4.452000000     2.860000000
H     1.726000000     3.372000000     3.917000000
O    -2.885000000    -0.458000000    -5.469000000
H    -3.355000000     0.334000000    -5.730000000
H    -3.391000000    -0.805000000    -4.734000000
O    -3.294000000    -2.377000000     4.296000000
H    -2.470000000    -1.955000000     4.538000000
H    -3.788000000    -2.426000000     5.114000000
O     0.354000000     6.632000000    -1.268000000
H    -0.131000000     7.365000000    -1.647000000
H    -0.022000000     5.856000000    -1.684000000
O    -1.698000000    -4.601000000     3.104000000
H    -1.881000000    -5.503000000     3.366000000
H    -2.203000000    -4.066000000     3.716000000
O    -5.896000000    -5.638000000    -1.036000000
H    -5.069000000    -5.607000000    -0.556000000
H    -6.444000000    -4.977000000    -0.612000000
O     0.016000000    -4.568000000     0.967000000
H    -0.197000000    -4.783000000     1.875000000
H    -0.729000000    -4.052000000     0.661000000
O    -4.889000000     1.562000000    -3.775000000
H    -4.861000000     0.744000000    -3.278000000
H    -5.775000000     1.594000000    -4.135000000
O     1.835000000    -0.190000000    -3.605000000
H     1.378000000     0.625000000    -3.811000000
H     1.474000000    -0.829000000    -4.218000000
O     0.387000000    -2.758000000     3.932000000
H    -0.060000000    -3.503000000     3.529000000
H    -0.179000000    -2.505000000     4.662000000
O    -2.945000000    -4.614000000    -2.432000000
H    -2.916000000    -3.682000000    -2.216000000
H    -2.852000000    -5.058000000    -1.589000000
O    -4.534000000    -1.333000000    -3.425000000
H    -5.190000000    -1.984000000    -3.673000000
H    -3.921000000    -1.811000000    -2.866000000
O     0.267000000    -5.205000000    -3.137000000
H     0.306000000    -5.728000000    -2.336000000
H    -0.667000000    -5.144000000    -3.338000000
O    -4.189000000    -7.798000000     1.720000000
H    -3.255000000    -7.955000000     1.858000000
H    -4.222000000    -6.999000000     1.194000000
O    -1.797000000    -3.459000000    -4.744000000
H    -1.988000000    -3.750000000    -3.852000000
H    -2.089000000    -2.548000000    -4.766000000
O     5.689000000     1.608000000     1.524000000
H     4.863000000     1.160000000     1.344000000
H     6.043000000     1.159000000     2.292000000
O     2.682000000     1.934000000    -6.009000000
H     1.785000000     1.629000000    -5.872000000
H     3.016000000     2.100000000    -5.127000000
O    -4.378000000    -2.181000000     1.858000000
H    -3.678000000    -2.435000000     1.256000000
H    -3.972000000    -2.214000000     2.725000000
O     5.524000000    -2.754000000     0.886000000
H     4.942000000    -2.000000000     0.984000000
H     6.150000000    -2.487000000     0.213000000
O    -5.403000000    -3.370000000    -4.822000000
H    -4.998000000    -3.022000000    -5.616000000
H    -5.047000000    -4.254000000    -4.739000000
O     3.910000000    -0.489000000     1.149000000
H     3.350000000    -0.887000000     0.483000000
H     3.470000000    -0.681000000     1.978000000
O    -3.244000000     3.840000000    -4.238000000
H    -3.737000000     3.049000000    -4.020000000
H    -3.506000000     4.046000000    -5.135000000
O    -0.910000000    -0.846000000    -7.251000000
H    -1.593000000    -0.470000000    -6.694000000
H    -0.351000000    -1.335000000    -6.647000000
O     0.670000000    -2.296000000    -5.152000000
H     0.024000000    -2.736000000    -4.601000000
H     0.799000000    -2.890000000    -5.891000000
O    -1.811000000     0.605000000     6.529000000
H    -2.582000000     1.172000000     6.549000000
H    -1.624000000     0.488000000     5.597000000
O     2.657000000     5.751000000     1.831000000
H     2.727000000     6.539000000     1.293000000
H     3.194000000     5.102000000     1.376000000
O     4.949000000     4.226000000     0.927000000
H     5.030000000     3.278000000     1.030000000
H     5.799000000     4.570000000     1.199000000
O    -2.432000000     2.368000000     3.202000000
H    -2.780000000     2.497000000     4.084000000
H    -3.206000000     2.354000000     2.638000000
O     5.120000000    -0.408000000    -2.392000000
H     4.830000000     0.503000000    -2.339000000
H     4.474000000    -0.895000000    -1.879000000
O     3.167000000     2.228000000    -3.311000000
H     2.913000000     1.314000000    -3.186000000
H     3.912000000     2.352000000    -2.723000000
O     2.766000000     7.379000000    -0.259000000
H     1.859000000     7.087000000    -0.345000000
H     3.268000000     6.763000000    -0.793000000
