161
-3048.11067
C    -0.095000000    -1.025000000     0.964000000
H    -0.101000000    -1.827000000     1.698000000
C     0.797000000     0.038000000     1.047000000
H     1.535000000     0.045000000     1.845000000
C     0.732000000     1.001000000     0.071000000
C     1.670000000     2.137000000     0.127000000
H     2.083000000     2.195000000     1.137000000
H     2.442000000     1.824000000    -0.579000000
H     1.228000000     3.087000000    -0.177000000
C    -0.179000000     0.848000000    -1.000000000
H    -0.181000000     1.637000000    -1.747000000
C    -1.035000000    -0.233000000    -1.063000000
H    -1.781000000    -0.261000000    -1.853000000
C    -0.988000000    -1.148000000    -0.038000000
C    -1.904000000    -2.398000000    -0.096000000
O    -2.645000000    -2.636000000    -1.019000000
O    -1.572000000    -3.289000000     0.687000000
O     3.103000000     1.070000000     3.531000000
H     2.646000000     0.354000000     3.974000000
H     4.025000000     0.938000000     3.751000000
O    -2.695000000     4.911000000    -4.411000000
H    -2.804000000     4.400000000    -3.609000000
H    -3.279000000     4.493000000    -5.043000000
O     7.216000000     0.646000000    -0.318000000
H     6.667000000     0.938000000     0.409000000
H     7.250000000     1.398000000    -0.910000000
O    -2.310000000     0.603000000    -4.115000000
H    -1.357000000     0.665000000    -4.185000000
H    -2.527000000    -0.232000000    -4.529000000
O     5.054000000     1.691000000    -3.397000000
H     5.382000000     2.561000000    -3.624000000
H     4.562000000     1.411000000    -4.169000000
O    -1.170000000     3.771000000     3.101000000
H    -1.672000000     3.065000000     2.694000000
H    -0.650000000     3.337000000     3.778000000
O    -7.266000000    -0.922000000    -0.811000000
H    -6.425000000    -0.471000000    -0.883000000
H    -7.058000000    -1.844000000    -0.963000000
O     2.468000000    -2.433000000     3.228000000
H     2.214000000    -1.730000000     3.826000000
H     1.815000000    -3.118000000     3.371000000
O     5.248000000    -0.992000000     3.900000000
H     4.712000000    -1.718000000     3.582000000
H     5.598000000    -1.301000000     4.736000000
O     2.791000000     5.205000000    -2.027000000
H     3.590000000     5.696000000    -2.220000000
H     3.013000000     4.680000000    -1.258000000
O    -5.736000000    -3.235000000    -0.879000000
H    -5.865000000    -3.470000000     0.040000000
H    -4.786000000    -3.186000000    -0.983000000
O     1.592000000     5.323000000     3.563000000
H     1.424000000     4.487000000     3.997000000
H     1.514000000     5.128000000     2.629000000
O     2.637000000    -0.674000000    -1.755000000
H     1.951000000    -1.130000000    -2.243000000
H     2.208000000     0.113000000    -1.418000000
O     0.702000000    -7.719000000     1.201000000
H     0.121000000    -7.027000000     0.884000000
H     1.360000000    -7.258000000     1.723000000
O    -1.299000000    -0.943000000     3.990000000
H    -1.586000000    -0.658000000     3.123000000
H    -1.192000000    -1.890000000     3.908000000
O    -1.923000000    -5.897000000     1.149000000
H    -1.894000000    -6.520000000     0.423000000
H    -1.891000000    -5.037000000     0.729000000
O    -3.762000000    -7.499000000    -2.722000000
H    -3.524000000    -6.620000000    -2.427000000
H    -4.311000000    -7.848000000    -2.020000000
O    -5.048000000    -3.071000000     1.736000000
H    -4.317000000    -3.526000000     2.155000000
H    -5.792000000    -3.228000000     2.317000000
O     1.409000000    -0.626000000     4.904000000
H     1.265000000    -0.642000000     5.850000000
H     0.539000000    -0.482000000     4.531000000
O    -4.265000000    -0.229000000     1.121000000
H    -4.346000000    -1.113000000     0.762000000
H    -4.815000000    -0.236000000     1.904000000
O    -0.095000000    -6.396000000    -1.472000000
H     0.847000000    -6.429000000    -1.304000000
H    -0.341000000    -7.306000000    -1.637000000
O    -2.465000000    -4.904000000    -4.457000000
H    -3.373000000    -4.656000000    -4.631000000
H    -2.479000000    -5.259000000    -3.568000000
O    -2.460000000     4.616000000     0.667000000
H    -2.011000000     4.296000000     1.449000000
H    -1.764000000     4.720000000     0.017000000
O     1.260000000     2.886000000     4.741000000
H     1.111000000     2.693000000     5.667000000
H     1.967000000     2.295000000     4.484000000
O    -3.550000000    -0.858000000    -6.023000000
H    -4.367000000    -0.483000000    -6.353000000
H    -3.829000000    -1.556000000    -5.430000000
O    -1.333000000    -3.174000000     6.108000000
H    -1.318000000    -3.898000000     6.734000000
H    -0.869000000    -3.510000000     5.341000000
O    -0.862000000     4.859000000    -1.396000000
H    -0.254000000     5.137000000    -2.081000000
H    -1.281000000     4.075000000    -1.751000000
O    -0.167000000    -6.186000000     3.686000000
H    -0.956000000    -5.684000000     3.483000000
H     0.416000000    -5.556000000     4.110000000
O     0.782000000    -4.572000000     0.948000000
H     1.202000000    -4.152000000     0.197000000
H    -0.127000000    -4.273000000     0.912000000
O    -4.174000000     1.238000000    -1.257000000
H    -4.257000000     0.642000000    -0.512000000
H    -4.289000000     0.678000000    -2.025000000
O     1.036000000     0.845000000    -4.258000000
H     0.907000000    -0.024000000    -3.878000000
H     0.997000000     0.700000000    -5.204000000
O    -2.435000000    -5.261000000    -1.670000000
H    -2.430000000    -4.319000000    -1.503000000
H    -1.525000000    -5.531000000    -1.545000000
O    -4.194000000    -1.165000000    -2.615000000
H    -4.583000000    -1.887000000    -3.109000000
H    -3.656000000    -1.593000000    -1.950000000
O    -0.345000000    -3.410000000    -5.206000000
H    -1.097000000    -3.868000000    -4.832000000
H    -0.121000000    -3.915000000    -5.988000000
O     6.397000000     0.990000000     2.314000000
H     5.967000000     0.289000000     2.804000000
H     5.970000000     1.791000000     2.618000000
O     3.096000000    -5.769000000     1.986000000
H     2.347000000    -5.309000000     1.608000000
H     3.860000000    -5.346000000     1.594000000
O    -1.626000000    -3.499000000     3.159000000
H    -1.722000000    -3.632000000     2.216000000
H    -2.298000000    -4.057000000     3.550000000
O     6.190000000    -1.640000000     0.553000000
H     5.272000000    -1.427000000     0.723000000
H     6.555000000    -0.840000000     0.175000000
O    -5.165000000    -3.322000000    -4.424000000
H    -5.789000000    -3.076000000    -5.107000000
H    -5.291000000    -4.265000000    -4.313000000
O     2.418000000    -3.207000000    -0.553000000
H     2.573000000    -2.298000000    -0.808000000
H     3.270000000    -3.633000000    -0.653000000
O     3.725000000    -1.174000000     1.075000000
H     3.353000000    -0.301000000     1.202000000
H     3.226000000    -1.735000000     1.670000000
O    -2.473000000     2.833000000    -2.544000000
H    -2.416000000     2.107000000    -3.165000000
H    -3.088000000     2.530000000    -1.876000000
O     0.408000000    -1.514000000    -3.101000000
H     0.478000000    -2.118000000    -3.841000000
H    -0.413000000    -1.756000000    -2.673000000
O     5.600000000     3.689000000     2.396000000
H     5.600000000     4.641000000     2.292000000
H     5.372000000     3.354000000     1.528000000
O     4.681000000     3.135000000    -0.952000000
H     5.549000000     3.539000000    -0.979000000
H     4.633000000     2.617000000    -1.755000000
O    -2.071000000     1.257000000     1.586000000
H    -2.768000000     0.728000000     1.199000000
H    -1.295000000     1.051000000     1.064000000
O     5.266000000    -0.838000000    -2.297000000
H     5.339000000     0.036000000    -2.681000000
H     4.376000000    -0.872000000    -1.946000000
O     1.407000000     3.958000000    -4.083000000
H     1.342000000     3.053000000    -4.387000000
H     1.966000000     3.911000000    -3.307000000
