161
-3037.69882
C     0.025000000    -1.496000000    -0.269000000
H    -0.034000000    -2.567000000    -0.444000000
C    -0.685000000    -0.902000000     0.733000000
H    -1.244000000    -1.591000000     1.361000000
C    -0.701000000     0.538000000     0.906000000
C    -1.273000000     1.262000000     2.084000000
H    -2.244000000     1.711000000     1.865000000
H    -1.359000000     0.501000000     2.862000000
H    -0.460000000     1.868000000     2.489000000
C    -0.004000000     1.316000000    -0.042000000
H    -0.027000000     2.401000000     0.021000000
C     0.720000000     0.720000000    -1.047000000
H     1.250000000     1.360000000    -1.748000000
C     0.768000000    -0.698000000    -1.117000000
C     1.505000000    -1.323000000    -2.267000000
O     1.881000000    -0.642000000    -3.175000000
O     1.890000000    -2.453000000    -2.218000000
O    -2.739000000    -3.351000000     4.638000000
H    -2.710000000    -4.285000000     4.850000000
H    -3.413000000    -2.996000000     5.217000000
O    -5.947000000     1.454000000     3.112000000
H    -6.694000000     1.238000000     2.554000000
H    -5.183000000     1.322000000     2.550000000
O     2.547000000    -1.917000000    -5.342000000
H     2.336000000    -1.510000000    -4.501000000
H     1.989000000    -2.693000000    -5.379000000
O    -3.882000000     4.405000000     0.513000000
H    -4.136000000     3.519000000     0.254000000
H    -4.592000000     4.701000000     1.082000000
O    -4.499000000    -1.645000000    -0.936000000
H    -4.115000000    -2.518000000    -0.852000000
H    -4.402000000    -1.429000000    -1.864000000
O    -1.818000000    -0.627000000     5.612000000
H    -1.086000000    -0.967000000     5.098000000
H    -2.580000000    -0.731000000     5.042000000
O    -1.470000000     4.419000000     2.738000000
H    -1.882000000     4.777000000     1.951000000
H    -1.886000000     3.566000000     2.858000000
O     4.066000000     1.575000000     5.009000000
H     3.703000000     2.199000000     4.381000000
H     3.841000000     0.716000000     4.651000000
O     5.149000000     2.483000000    -0.535000000
H     4.678000000     1.650000000    -0.514000000
H     6.013000000     2.260000000    -0.882000000
O    -0.848000000     4.791000000     5.895000000
H    -1.302000000     5.620000000     6.051000000
H    -1.210000000     4.472000000     5.069000000
O     4.340000000     0.390000000    -2.242000000
H     4.755000000    -0.469000000    -2.162000000
H     3.414000000     0.196000000    -2.390000000
O     2.058000000     4.833000000     1.357000000
H     2.747000000     5.469000000     1.166000000
H     2.056000000     4.248000000     0.600000000
O    -4.409000000     0.616000000     0.862000000
H    -4.286000000    -0.118000000     0.259000000
H    -5.267000000     0.973000000     0.631000000
O    -1.553000000    -3.836000000    -2.245000000
H    -2.312000000    -3.856000000    -1.663000000
H    -1.114000000    -4.674000000    -2.096000000
O    -5.300000000     4.988000000     2.662000000
H    -6.093000000     5.421000000     2.980000000
H    -4.870000000     4.665000000     3.454000000
O     0.709000000    -1.985000000     4.673000000
H     0.192000000    -2.625000000     5.162000000
H     1.618000000    -2.205000000     4.877000000
O     1.449000000     5.469000000    -4.072000000
H     1.489000000     6.396000000    -3.836000000
H     2.315000000     5.128000000    -3.849000000
O    -4.192000000     4.221000000     5.318000000
H    -4.030000000     5.012000000     5.832000000
H    -4.697000000     3.655000000     5.902000000
O     4.641000000    -3.069000000    -2.719000000
H     4.475000000    -3.570000000    -1.920000000
H     3.772000000    -2.799000000    -3.017000000
O     0.770000000    -4.828000000    -5.709000000
H     1.564000000    -5.304000000    -5.465000000
H     0.163000000    -5.508000000    -5.999000000
O    -3.543000000    -4.329000000    -0.224000000
H    -4.244000000    -4.962000000    -0.067000000
H    -3.124000000    -4.219000000     0.630000000
O     7.198000000    -1.946000000    -2.835000000
H     6.358000000    -2.254000000    -3.177000000
H     7.064000000    -1.887000000    -1.889000000
O     2.702000000    -3.174000000     0.270000000
H     2.317000000    -2.957000000    -0.578000000
H     2.328000000    -2.533000000     0.875000000
O    -0.193000000     4.974000000    -0.914000000
H    -0.326000000     5.770000000    -0.401000000
H     0.557000000     4.545000000    -0.503000000
O     0.678000000    -3.787000000     2.479000000
H     0.492000000    -3.074000000     3.090000000
H     1.396000000    -4.270000000     2.887000000
O    -4.630000000     2.405000000    -2.696000000
H    -4.609000000     3.221000000    -3.197000000
H    -3.711000000     2.147000000    -2.622000000
O     2.623000000    -6.584000000    -4.524000000
H     3.231000000    -6.939000000    -3.876000000
H     2.017000000    -6.046000000    -4.015000000
O     2.413000000     1.474000000    -4.905000000
H     1.635000000     1.878000000    -5.290000000
H     2.075000000     0.724000000    -4.416000000
O     4.579000000    -4.988000000    -0.637000000
H     4.892000000    -5.793000000    -0.225000000
H     3.783000000    -4.765000000    -0.153000000
O    -3.774000000    -0.708000000     3.689000000
H    -4.572000000    -1.222000000     3.572000000
H    -3.608000000    -0.323000000     2.828000000
O     3.847000000    -4.479000000    -6.394000000
H     4.004000000    -5.173000000    -5.753000000
H     4.134000000    -3.679000000    -5.954000000
O     5.321000000     0.236000000     1.811000000
H     4.448000000     0.439000000     1.476000000
H     5.309000000    -0.711000000     1.951000000
O     1.208000000    -5.433000000    -2.072000000
H     1.614000000    -5.531000000    -1.211000000
H     1.043000000    -4.494000000    -2.154000000
O     2.752000000     0.988000000     1.166000000
H     2.122000000     0.844000000     0.459000000
H     2.226000000     0.960000000     1.965000000
O    -0.654000000    -2.779000000    -4.889000000
H    -0.227000000    -3.596000000    -5.147000000
H    -0.909000000    -2.919000000    -3.978000000
O    -2.004000000     1.625000000    -2.545000000
H    -1.573000000     1.065000000    -1.899000000
H    -1.315000000     2.217000000    -2.846000000
O     2.473000000     3.044000000     3.427000000
H     2.110000000     3.498000000     2.667000000
H     2.322000000     3.643000000     4.159000000
O     2.556000000     3.441000000    -0.919000000
H     3.384000000     3.181000000    -0.515000000
H     2.763000000     3.536000000    -1.849000000
O     0.958000000     0.245000000    -7.365000000
H     0.332000000     0.269000000    -6.641000000
H     1.714000000    -0.225000000    -7.012000000
O     2.034000000     4.644000000     5.702000000
H     2.491000000     5.334000000     5.220000000
H     1.113000000     4.906000000     5.678000000
O    -2.004000000    -4.256000000     2.266000000
H    -1.051000000    -4.187000000     2.311000000
H    -2.317000000    -3.759000000     3.021000000
O    -0.598000000     3.797000000    -3.505000000
H    -0.794000000     4.266000000    -2.694000000
H     0.202000000     4.209000000    -3.831000000
O    -3.921000000     1.170000000     6.277000000
H    -3.151000000     0.711000000     5.942000000
H    -4.637000000     0.883000000     5.709000000
O     0.597000000     6.269000000     3.110000000
H     1.249000000     5.998000000     2.463000000
H    -0.072000000     5.585000000     3.076000000
O    -0.848000000    -0.079000000    -5.451000000
H    -0.858000000    -1.033000000    -5.371000000
H    -0.837000000     0.237000000    -4.548000000
O     4.776000000    -2.371000000     1.994000000
H     4.055000000    -2.912000000     1.672000000
H     5.408000000    -2.999000000     2.346000000
O     4.518000000    -0.435000000    -6.982000000
H     3.830000000    -0.863000000    -6.473000000
H     5.163000000    -1.124000000    -7.142000000
O     3.706000000     3.617000000    -3.702000000
H     3.542000000     2.694000000    -3.899000000
H     4.602000000     3.770000000    -4.002000000
