161
-3087.21459
C     0.597000000    -1.394000000     0.003000000
H     1.066000000    -2.374000000     0.041000000
C    -0.282000000    -0.896000000     0.985000000
H    -0.675000000    -1.614000000     1.700000000
C    -0.710000000     0.436000000     0.877000000
C    -1.683000000     1.061000000     1.873000000
H    -2.355000000     0.263000000     2.195000000
H    -1.178000000     1.510000000     2.731000000
H    -2.391000000     1.757000000     1.419000000
C    -0.366000000     1.249000000    -0.216000000
H    -0.789000000     2.250000000    -0.219000000
C     0.543000000     0.738000000    -1.114000000
H     0.897000000     1.402000000    -1.899000000
C     1.049000000    -0.554000000    -1.026000000
C     1.939000000    -1.107000000    -2.111000000
O     2.421000000    -0.408000000    -3.013000000
O     1.919000000    -2.322000000    -2.224000000
O     5.736000000    -1.187000000    -5.822000000
H     6.100000000    -1.466000000    -6.663000000
H     4.802000000    -1.384000000    -5.888000000
O    -5.714000000     3.819000000     2.988000000
H    -6.038000000     2.920000000     2.935000000
H    -4.780000000     3.749000000     2.787000000
O     2.835000000    -1.826000000    -5.376000000
H     1.969000000    -2.133000000    -5.645000000
H     2.672000000    -1.310000000    -4.587000000
O    -5.285000000     2.671000000    -1.458000000
H    -5.933000000     2.197000000    -1.981000000
H    -4.864000000     1.994000000    -0.929000000
O     0.279000000    -2.612000000    -5.650000000
H    -0.453000000    -2.793000000    -6.240000000
H     0.073000000    -3.102000000    -4.854000000
O    -1.086000000    -0.008000000     5.260000000
H    -1.900000000     0.197000000     4.799000000
H    -0.395000000     0.220000000     4.638000000
O    -5.461000000     0.035000000    -0.142000000
H    -6.298000000    -0.363000000    -0.384000000
H    -4.801000000    -0.549000000    -0.516000000
O     1.522000000     4.643000000    -1.624000000
H     0.906000000     4.086000000    -2.101000000
H     1.013000000     4.987000000    -0.890000000
O     4.677000000    -2.048000000     1.240000000
H     4.607000000    -1.226000000     0.756000000
H     5.443000000    -2.482000000     0.865000000
O     0.088000000     0.165000000    -4.394000000
H     0.906000000     0.119000000    -3.901000000
H    -0.045000000    -0.724000000    -4.723000000
O     2.640000000     5.158000000    -4.048000000
H     2.757000000     4.270000000    -4.385000000
H     2.220000000     5.038000000    -3.196000000
O     4.411000000    -2.896000000    -3.030000000
H     3.514000000    -2.767000000    -2.721000000
H     4.375000000    -2.690000000    -3.964000000
O     0.043000000    -3.655000000     3.308000000
H     0.772000000    -3.446000000     2.724000000
H     0.426000000    -4.226000000     3.974000000
O    -4.151000000    -1.878000000     2.290000000
H    -4.785000000    -2.374000000     1.773000000
H    -3.333000000    -2.367000000     2.199000000
O    -4.593000000     5.400000000    -1.396000000
H    -5.322000000     5.774000000    -0.899000000
H    -4.690000000     4.454000000    -1.287000000
O     4.820000000    -5.543000000    -2.996000000
H     5.492000000    -5.714000000    -3.656000000
H     4.416000000    -4.721000000    -3.274000000
O    -3.916000000     0.035000000     4.510000000
H    -4.516000000    -0.066000000     5.249000000
H    -4.220000000    -0.605000000     3.866000000
O     4.982000000     3.020000000    -3.389000000
H     4.707000000     2.835000000    -2.491000000
H     5.160000000     3.960000000    -3.396000000
O     2.575000000     1.225000000     1.651000000
H     1.861000000     0.618000000     1.453000000
H     2.282000000     1.691000000     2.434000000
O    -3.081000000    -0.795000000    -1.543000000
H    -2.477000000    -0.250000000    -1.039000000
H    -2.959000000    -0.513000000    -2.450000000
O    -0.250000000    -6.425000000    -1.300000000
H     0.083000000    -6.398000000    -2.197000000
H     0.016000000    -5.588000000    -0.920000000
O     0.873000000    -6.295000000    -3.770000000
H     0.577000000    -5.398000000    -3.617000000
H     1.062000000    -6.329000000    -4.708000000
O     2.901000000     1.659000000    -4.381000000
H     2.714000000     0.934000000    -3.785000000
H     3.707000000     2.046000000    -4.040000000
O     2.192000000    -5.121000000    -5.864000000
H     1.781000000    -4.262000000    -5.773000000
H     1.769000000    -5.509000000    -6.631000000
O    -1.992000000     4.490000000    -1.051000000
H    -1.390000000     5.029000000    -0.539000000
H    -2.777000000     5.030000000    -1.143000000
O    -2.147000000    -3.716000000     2.013000000
H    -2.306000000    -4.660000000     1.998000000
H    -1.290000000    -3.624000000     2.430000000
O     2.295000000    -3.806000000     1.627000000
H     2.502000000    -4.171000000     0.767000000
H     2.950000000    -3.120000000     1.759000000
O    -3.031000000     2.975000000    -3.142000000
H    -2.380000000     3.552000000    -2.744000000
H    -3.741000000     2.936000000    -2.501000000
O     3.911000000    -6.704000000     0.816000000
H     3.315000000    -6.184000000     0.277000000
H     3.512000000    -7.573000000     0.844000000
O    -1.776000000    -3.363000000    -0.918000000
H    -1.787000000    -2.414000000    -1.044000000
H    -1.796000000    -3.479000000     0.032000000
O     1.737000000    -0.048000000     5.201000000
H     2.393000000    -0.623000000     4.808000000
H     1.539000000    -0.452000000     6.045000000
O    -3.028000000     3.942000000     3.675000000
H    -2.512000000     3.517000000     2.990000000
H    -2.572000000     3.726000000     4.488000000
O     2.896000000    -4.686000000    -1.065000000
H     3.751000000    -4.864000000    -1.457000000
H     2.549000000    -3.951000000    -1.570000000
O    -1.786000000     0.542000000     7.661000000
H    -1.225000000     0.528000000     6.886000000
H    -2.115000000    -0.354000000     7.735000000
O     2.551000000     2.591000000    -7.028000000
H     2.666000000     1.993000000    -6.290000000
H     3.399000000     3.024000000    -7.120000000
O     4.607000000     0.214000000    -0.090000000
H     4.652000000     0.292000000    -1.043000000
H     3.922000000     0.830000000     0.168000000
O     7.162000000    -3.816000000    -2.250000000
H     6.266000000    -3.734000000    -2.579000000
H     7.068000000    -3.811000000    -1.298000000
O    -0.147000000    -3.732000000    -3.170000000
H    -0.752000000    -3.880000000    -2.442000000
H     0.559000000    -3.209000000    -2.791000000
O     0.133000000     5.859000000     0.467000000
H    -0.061000000     6.771000000     0.251000000
H     0.580000000     5.903000000     1.312000000
O     0.308000000     3.181000000    -4.558000000
H     0.332000000     2.821000000    -5.445000000
H     0.303000000     2.412000000    -3.988000000
O     2.360000000     2.566000000     4.386000000
H     2.163000000     1.711000000     4.768000000
H     2.153000000     3.192000000     5.080000000
O    -1.303000000     3.184000000     5.880000000
H    -0.734000000     3.888000000     6.191000000
H    -1.916000000     3.036000000     6.600000000
O     3.310000000     2.537000000    -0.770000000
H     2.713000000     3.276000000    -0.887000000
H     2.966000000     2.070000000    -0.008000000
O     3.154000000    -7.404000000    -2.012000000
H     2.367000000    -6.897000000    -2.211000000
H     3.864000000    -6.763000000    -2.033000000
O    -5.488000000     1.262000000     2.484000000
H    -5.034000000     0.733000000     3.139000000
H    -5.253000000     0.860000000     1.647000000
O    -2.763000000    -0.169000000    -4.232000000
H    -1.819000000    -0.186000000    -4.392000000
H    -2.963000000     0.755000000    -4.082000000
O     6.659000000    -0.770000000    -2.301000000
H     6.752000000    -0.343000000    -3.153000000
H     5.925000000    -1.373000000    -2.414000000
O    -0.305000000     5.901000000    -4.016000000
H     0.285000000     6.415000000    -4.567000000
H    -0.277000000     5.021000000    -4.391000000
