161
-3070.60432
C     0.493000000    -1.001000000     0.916000000
H     0.831000000    -1.720000000     1.657000000
C     0.077000000     0.277000000     1.305000000
H     0.178000000     0.601000000     2.338000000
C    -0.456000000     1.129000000     0.315000000
C    -0.743000000     2.477000000     0.665000000
H    -1.653000000     2.636000000     1.246000000
H    -0.087000000     2.923000000     1.416000000
H    -0.761000000     3.084000000    -0.243000000
C    -0.480000000     0.701000000    -1.058000000
H    -0.841000000     1.386000000    -1.821000000
C    -0.015000000    -0.549000000    -1.349000000
H    -0.143000000    -0.861000000    -2.383000000
C     0.449000000    -1.469000000    -0.408000000
C     0.929000000    -2.842000000    -0.786000000
O     0.498000000    -3.378000000    -1.772000000
O     1.725000000    -3.391000000    -0.034000000
O    -0.435000000     3.136000000    -5.083000000
H    -1.159000000     2.837000000    -5.633000000
H    -0.181000000     3.980000000    -5.458000000
O    -0.032000000    -2.951000000    -4.341000000
H     0.572000000    -3.446000000    -4.895000000
H     0.261000000    -3.131000000    -3.448000000
O    -0.076000000     4.524000000     3.800000000
H     0.278000000     3.648000000     3.951000000
H    -0.087000000     4.931000000     4.666000000
O     5.013000000    -3.596000000     3.213000000
H     4.153000000    -3.858000000     2.885000000
H     5.319000000    -2.939000000     2.588000000
O     2.733000000     1.104000000    -1.402000000
H     2.057000000     1.307000000    -2.048000000
H     3.051000000     0.236000000    -1.652000000
O    -4.934000000     3.613000000    -2.087000000
H    -5.693000000     3.094000000    -1.821000000
H    -4.504000000     3.847000000    -1.264000000
O    -1.980000000    -4.262000000    -5.595000000
H    -1.778000000    -4.076000000    -6.512000000
H    -1.430000000    -3.654000000    -5.101000000
O     0.735000000     1.076000000    -4.055000000
H    -0.080000000     0.594000000    -4.196000000
H     0.490000000     1.996000000    -4.151000000
O    -1.803000000    -1.779000000     4.587000000
H    -1.010000000    -1.433000000     4.996000000
H    -1.691000000    -1.596000000     3.654000000
O     3.518000000     4.406000000     2.302000000
H     4.233000000     4.143000000     2.881000000
H     3.030000000     3.599000000     2.142000000
O    -3.018000000     4.669000000     4.620000000
H    -3.431000000     5.526000000     4.723000000
H    -2.127000000     4.865000000     4.332000000
O     3.229000000    -1.373000000     5.065000000
H     3.287000000    -1.787000000     4.203000000
H     3.849000000    -0.645000000     5.023000000
O    -0.011000000    -6.032000000    -0.639000000
H     0.170000000    -6.566000000    -1.412000000
H     0.572000000    -5.278000000    -0.727000000
O     2.894000000     1.582000000     1.305000000
H     2.795000000     1.305000000     0.394000000
H     2.897000000     0.765000000     1.805000000
O     0.554000000    -7.544000000    -2.872000000
H     0.178000000    -7.480000000    -3.751000000
H     0.746000000    -8.475000000    -2.762000000
O    -1.099000000    -4.154000000     2.966000000
H    -1.710000000    -3.770000000     3.595000000
H    -1.576000000    -4.151000000     2.136000000
O    -1.133000000     6.297000000    -1.196000000
H    -1.281000000     5.491000000    -1.691000000
H    -0.180000000     6.378000000    -1.150000000
O    -4.576000000     3.173000000     2.944000000
H    -3.834000000     2.577000000     3.049000000
H    -4.271000000     4.002000000     3.312000000
O    -3.903000000     0.818000000    -0.419000000
H    -4.822000000     0.978000000    -0.632000000
H    -3.598000000     1.641000000    -0.038000000
O    -3.991000000     4.368000000     0.322000000
H    -4.317000000     3.873000000     1.073000000
H    -3.561000000     5.131000000     0.707000000
O    -4.636000000    -4.794000000    -2.286000000
H    -3.903000000    -4.458000000    -1.770000000
H    -4.230000000    -5.380000000    -2.924000000
O    -2.240000000    -3.685000000    -1.004000000
H    -1.432000000    -3.997000000    -1.412000000
H    -2.339000000    -2.789000000    -1.325000000
O    -3.141000000    -1.364000000    -1.854000000
H    -2.865000000    -0.870000000    -2.626000000
H    -3.371000000    -0.694000000    -1.210000000
O     1.398000000     6.024000000    -0.204000000
H     1.639000000     5.188000000    -0.603000000
H     2.177000000     6.288000000     0.285000000
O     2.672000000    -4.168000000     2.334000000
H     1.973000000    -4.764000000     2.604000000
H     2.334000000    -3.744000000     1.546000000
O    -2.775000000    -1.747000000     1.618000000
H    -2.809000000    -2.511000000     1.043000000
H    -2.273000000    -1.098000000     1.125000000
O     2.504000000     1.836000000     5.173000000
H     2.674000000     1.991000000     6.102000000
H     3.287000000     2.161000000     4.729000000
O     2.469000000    -4.336000000    -3.185000000
H     2.584000000    -5.120000000    -2.648000000
H     1.782000000    -3.839000000    -2.740000000
O    -2.571000000    -7.155000000    -0.603000000
H    -2.400000000    -7.617000000    -1.424000000
H    -1.782000000    -6.633000000    -0.453000000
O     1.312000000    -5.051000000    -5.927000000
H     2.052000000    -4.677000000    -6.405000000
H     1.660000000    -5.237000000    -5.055000000
O     2.243000000     0.159000000    -6.326000000
H     1.798000000     0.270000000    -5.486000000
H     1.609000000     0.465000000    -6.975000000
O     0.535000000    -5.994000000     2.012000000
H     0.353000000    -6.373000000     1.152000000
H    -0.215000000    -5.426000000     2.186000000
O     6.074000000    -0.594000000     0.723000000
H     6.616000000    -1.036000000     1.376000000
H     5.368000000    -1.214000000     0.538000000
O    -1.264000000     4.181000000    -2.831000000
H    -2.113000000     3.865000000    -2.522000000
H    -1.049000000     3.608000000    -3.568000000
O     3.489000000    -8.227000000     0.085000000
H     4.055000000    -7.512000000     0.376000000
H     2.677000000    -7.796000000    -0.181000000
O    -2.615000000     1.771000000     4.315000000
H    -1.897000000     1.289000000     4.724000000
H    -2.460000000     2.684000000     4.558000000
O     4.110000000    -2.046000000    -0.394000000
H     3.236000000    -2.418000000    -0.278000000
H     4.153000000    -1.817000000    -1.322000000
O    -0.068000000     1.320000000     5.394000000
H     0.788000000     1.527000000     5.020000000
H     0.069000000     0.498000000     5.865000000
O     2.851000000    -1.138000000    -2.910000000
H     2.047000000    -0.797000000    -3.304000000
H     3.381000000    -1.421000000    -3.655000000
O    -1.923000000    -0.776000000    -4.339000000
H    -2.054000000    -0.552000000    -5.261000000
H    -1.412000000    -1.586000000    -4.360000000
O    -3.324000000    -4.610000000     1.522000000
H    -3.027000000    -4.388000000     0.640000000
H    -4.258000000    -4.793000000     1.422000000
O     0.511000000    -1.558000000     5.887000000
H     0.463000000    -2.248000000     6.549000000
H     1.402000000    -1.620000000     5.542000000
O     3.964000000    -3.878000000    -5.581000000
H     3.534000000    -3.890000000    -4.726000000
H     4.212000000    -4.790000000    -5.737000000
O     3.532000000     6.739000000     1.255000000
H     3.481000000     5.839000000     1.579000000
H     3.545000000     7.278000000     2.045000000
O     2.445000000     3.963000000    -1.424000000
H     2.646000000     4.016000000    -2.358000000
H     1.908000000     3.175000000    -1.338000000
O    -3.133000000     6.260000000     1.960000000
H    -3.348000000     7.193000000     1.949000000
H    -2.209000000     6.224000000     1.712000000
O     3.398000000    -5.529000000    -0.736000000
H     2.880000000    -4.743000000    -0.562000000
H     4.103000000    -5.500000000    -0.089000000
O    -0.388000000     6.476000000     1.901000000
H    -0.055000000     5.678000000     2.312000000
H     0.137000000     6.573000000     1.106000000
