161
-3031.28131
C     1.123000000    -0.814000000     0.532000000
H     1.748000000    -1.503000000     1.094000000
C     0.564000000     0.325000000     1.173000000
H     0.754000000     0.607000000     2.206000000
C    -0.403000000     1.063000000     0.490000000
C    -1.061000000     2.149000000     1.214000000
H    -1.705000000     2.787000000     0.604000000
H    -1.750000000     1.721000000     1.944000000
H    -0.371000000     2.861000000     1.671000000
C    -0.888000000     0.650000000    -0.770000000
H    -1.762000000     1.126000000    -1.208000000
C    -0.331000000    -0.480000000    -1.360000000
H    -0.725000000    -0.894000000    -2.285000000
C     0.703000000    -1.196000000    -0.765000000
C     1.229000000    -2.408000000    -1.395000000
O     0.707000000    -3.036000000    -2.287000000
O     2.167000000    -2.958000000    -0.858000000
O    -2.422000000     6.578000000    -1.205000000
H    -2.905000000     5.752000000    -1.177000000
H    -3.081000000     7.232000000    -1.441000000
O     0.098000000    -2.138000000    -4.668000000
H     0.807000000    -2.376000000    -5.265000000
H     0.409000000    -2.411000000    -3.805000000
O    -1.324000000     3.678000000     6.633000000
H    -1.028000000     3.087000000     5.940000000
H    -0.809000000     4.475000000     6.505000000
O     3.753000000    -1.471000000     2.663000000
H     3.409000000    -0.655000000     2.299000000
H     3.756000000    -2.080000000     1.925000000
O     5.680000000    -0.359000000    -1.979000000
H     6.121000000    -1.044000000    -1.476000000
H     6.345000000     0.320000000    -2.094000000
O     4.696000000     0.769000000     0.588000000
H     4.489000000    -0.164000000     0.551000000
H     5.649000000     0.807000000     0.513000000
O    -6.371000000     1.952000000     3.152000000
H    -5.431000000     2.048000000     3.304000000
H    -6.508000000     2.294000000     2.268000000
O     2.863000000     2.153000000    -0.936000000
H     3.469000000     1.647000000    -0.396000000
H     2.832000000     1.682000000    -1.768000000
O     5.153000000    -1.275000000     5.278000000
H     4.540000000    -1.600000000     4.618000000
H     4.605000000    -1.088000000     6.041000000
O    -0.871000000     3.376000000    -3.784000000
H     0.022000000     3.257000000    -4.108000000
H    -0.760000000     3.722000000    -2.899000000
O    -4.988000000     5.430000000     2.065000000
H    -5.460000000     5.717000000     2.846000000
H    -4.842000000     6.233000000     1.564000000
O     0.446000000    -1.407000000     4.493000000
H     0.903000000    -1.958000000     3.858000000
H     1.141000000    -0.898000000     4.912000000
O    -6.395000000    -1.149000000    -1.595000000
H    -6.716000000    -2.038000000    -1.744000000
H    -5.445000000    -1.218000000    -1.694000000
O    -4.271000000     4.472000000    -3.087000000
H    -4.911000000     4.936000000    -2.548000000
H    -4.430000000     3.546000000    -2.904000000
O     2.077000000    -3.776000000     5.071000000
H     2.184000000    -3.247000000     5.861000000
H     2.867000000    -4.315000000     5.034000000
O     3.912000000     3.102000000     2.640000000
H     3.860000000     4.055000000     2.709000000
H     3.989000000     2.933000000     1.701000000
O    -2.474000000     4.493000000     3.678000000
H    -3.223000000     4.451000000     3.082000000
H    -2.282000000     5.427000000     3.754000000
O    -1.824000000    -3.640000000    -1.611000000
H    -2.175000000    -4.101000000    -2.372000000
H    -0.909000000    -3.470000000    -1.836000000
O     0.643000000     3.395000000    -1.337000000
H     1.537000000     3.071000000    -1.226000000
H     0.088000000     2.668000000    -1.056000000
O    -2.961000000     1.626000000    -4.031000000
H    -3.296000000     1.488000000    -3.145000000
H    -2.228000000     2.231000000    -3.918000000
O     1.781000000     2.635000000    -4.363000000
H     2.077000000     3.416000000    -3.896000000
H     2.108000000     1.904000000    -3.838000000
O    -3.215000000    -1.918000000     4.289000000
H    -2.676000000    -1.607000000     3.561000000
H    -3.972000000    -2.325000000     3.869000000
O     0.699000000    -6.428000000    -6.093000000
H     1.351000000    -7.112000000    -6.246000000
H     0.966000000    -6.022000000    -5.268000000
O    -3.538000000     1.950000000     3.661000000
H    -3.086000000     1.187000000     4.021000000
H    -2.889000000     2.653000000     3.698000000
O    -5.128000000     2.107000000    -1.869000000
H    -5.481000000     2.640000000    -1.157000000
H    -5.645000000     1.302000000    -1.845000000
O    -1.971000000    -0.894000000    -5.619000000
H    -2.129000000    -0.035000000    -5.226000000
H    -1.208000000    -1.235000000    -5.152000000
O    -6.359000000     3.661000000     0.187000000
H    -6.530000000     4.315000000    -0.491000000
H    -5.835000000     4.125000000     0.840000000
O    -3.766000000    -1.752000000    -2.315000000
H    -3.028000000    -2.110000000    -1.821000000
H    -3.846000000    -2.326000000    -3.076000000
O     1.428000000    -5.423000000     0.431000000
H     2.184000000    -5.977000000     0.627000000
H     1.786000000    -4.707000000    -0.094000000
O    -1.886000000    -1.589000000     1.864000000
H    -1.283000000    -0.872000000     1.666000000
H    -1.336000000    -2.372000000     1.859000000
O     3.443000000    -4.759000000    -2.428000000
H     4.097000000    -4.337000000    -2.985000000
H     3.030000000    -4.036000000    -1.955000000
O    -1.529000000    -4.704000000    -5.917000000
H    -1.247000000    -5.260000000    -6.643000000
H    -0.719000000    -4.325000000    -5.577000000
O    -1.420000000     0.328000000     5.364000000
H    -0.749000000     0.098000000     6.007000000
H    -1.178000000    -0.163000000     4.579000000
O     4.933000000    -2.781000000    -3.802000000
H     5.731000000    -2.457000000    -4.219000000
H     4.497000000    -1.994000000    -3.476000000
O     4.220000000    -3.035000000     0.666000000
H     3.529000000    -2.972000000     0.006000000
H     5.022000000    -2.805000000     0.196000000
O    -5.240000000     0.505000000    -5.273000000
H    -5.041000000    -0.148000000    -5.944000000
H    -4.398000000     0.682000000    -4.854000000
O     2.295000000     1.224000000     4.348000000
H     2.908000000     1.586000000     3.708000000
H     2.677000000     1.444000000     5.198000000
O     3.666000000    -6.883000000     0.988000000
H     3.504000000    -7.172000000     1.886000000
H     4.561000000    -6.544000000     1.002000000
O     6.647000000    -2.816000000    -0.665000000
H     6.505000000    -2.985000000    -1.597000000
H     7.139000000    -3.577000000    -0.356000000
O    -3.345000000    -3.362000000    -4.690000000
H    -3.266000000    -2.462000000    -5.005000000
H    -2.742000000    -3.863000000    -5.240000000
O     3.456000000     0.613000000    -3.233000000
H     4.219000000     0.398000000    -2.696000000
H     3.477000000    -0.027000000    -3.945000000
O    -1.171000000    -4.315000000     1.109000000
H    -0.260000000    -4.598000000     1.029000000
H    -1.512000000    -4.348000000     0.215000000
O     1.658000000    -3.019000000    -6.772000000
H     1.412000000    -2.251000000    -7.288000000
H     2.545000000    -3.230000000    -7.064000000
O     3.681000000    -7.449000000    -1.766000000
H     3.590000000    -7.292000000    -0.826000000
H     3.661000000    -6.576000000    -2.157000000
O     0.435000000     5.998000000    -1.898000000
H    -0.451000000     6.238000000    -1.626000000
H     0.627000000     5.196000000    -1.412000000
O     5.620000000    -4.674000000     2.415000000
H     5.300000000    -4.424000000     3.282000000
H     5.161000000    -4.089000000     1.812000000
O     1.069000000    -5.469000000    -3.496000000
H     0.814000000    -4.620000000    -3.133000000
H     1.959000000    -5.609000000    -3.175000000
O    -0.818000000    -6.957000000    -1.846000000
H    -0.220000000    -6.615000000    -2.510000000
H    -1.687000000    -6.873000000    -2.240000000
