161
-3011.35838
C     1.067000000     0.243000000     0.885000000
H     1.713000000     0.674000000     1.645000000
C     0.231000000     1.199000000     0.292000000
H     0.264000000     2.214000000     0.678000000
C    -0.768000000     0.790000000    -0.544000000
C    -1.724000000     1.849000000    -1.043000000
H    -1.154000000     2.695000000    -1.432000000
H    -2.509000000     1.495000000    -1.714000000
H    -2.156000000     2.273000000    -0.134000000
C    -0.921000000    -0.577000000    -0.842000000
H    -1.788000000    -0.969000000    -1.367000000
C     0.031000000    -1.468000000    -0.357000000
H    -0.099000000    -2.498000000    -0.681000000
C     1.040000000    -1.076000000     0.549000000
C     2.020000000    -2.015000000     1.188000000
O     2.086000000    -3.114000000     0.723000000
O     2.672000000    -1.720000000     2.159000000
O    -5.592000000     5.180000000     2.274000000
H    -5.010000000     4.458000000     2.512000000
H    -5.630000000     5.151000000     1.318000000
O     2.940000000    -0.200000000     5.739000000
H     2.162000000    -0.582000000     5.333000000
H     3.236000000     0.462000000     5.113000000
O     5.518000000    -5.140000000     2.463000000
H     5.610000000    -5.634000000     3.278000000
H     6.418000000    -4.992000000     2.171000000
O    -1.030000000     1.160000000     5.518000000
H    -0.995000000     0.936000000     6.448000000
H    -0.401000000     1.874000000     5.419000000
O     7.019000000    -2.456000000     3.484000000
H     6.328000000    -1.794000000     3.466000000
H     7.829000000    -1.961000000     3.365000000
O     3.960000000    -7.015000000    -1.273000000
H     3.837000000    -6.718000000    -0.371000000
H     4.792000000    -6.625000000    -1.541000000
O    -0.503000000     2.917000000    -4.021000000
H    -1.087000000     3.226000000    -4.714000000
H    -0.306000000     3.701000000    -3.508000000
O    -1.246000000     7.405000000     0.698000000
H    -1.496000000     6.489000000     0.822000000
H    -1.972000000     7.786000000     0.204000000
O    -5.040000000    -0.972000000    -2.793000000
H    -4.657000000    -0.348000000    -3.410000000
H    -5.280000000    -0.441000000    -2.034000000
O     3.232000000    -5.583000000     0.955000000
H     2.639000000    -4.851000000     0.785000000
H     3.955000000    -5.197000000     1.449000000
O    -0.276000000    -0.722000000    -5.317000000
H     0.132000000    -1.587000000    -5.355000000
H     0.056000000    -0.336000000    -4.506000000
O     0.775000000     3.214000000     5.882000000
H     0.875000000     3.939000000     6.499000000
H     1.497000000     3.325000000     5.263000000
O     2.466000000    -5.376000000     5.294000000
H     3.067000000    -5.690000000     5.969000000
H     2.600000000    -4.429000000     5.276000000
O     1.253000000    -2.018000000     4.319000000
H     1.801000000    -1.908000000     3.542000000
H     0.389000000    -1.709000000     4.049000000
O    -6.453000000     1.755000000     1.595000000
H    -5.810000000     1.932000000     2.282000000
H    -7.133000000     1.241000000     2.030000000
O    -5.408000000     4.804000000    -0.366000000
H    -6.029000000     5.412000000    -0.767000000
H    -5.600000000     3.960000000    -0.775000000
O    -3.356000000    -0.265000000     1.924000000
H    -3.138000000    -0.167000000     0.997000000
H    -3.391000000    -1.211000000     2.063000000
O    -1.305000000     4.702000000     1.820000000
H    -0.595000000     4.075000000     1.961000000
H    -1.910000000     4.546000000     2.545000000
O    -4.339000000     2.496000000     3.175000000
H    -4.779000000     2.239000000     3.985000000
H    -3.889000000     1.702000000     2.885000000
O     0.852000000    -4.534000000     2.583000000
H     1.432000000    -4.305000000     3.309000000
H     1.161000000    -3.999000000     1.851000000
O     1.769000000     4.885000000     1.945000000
H     2.435000000     4.491000000     1.382000000
H     1.866000000     4.433000000     2.784000000
O    -2.601000000    -2.330000000    -3.427000000
H    -2.718000000    -1.645000000    -4.085000000
H    -3.007000000    -1.975000000    -2.636000000
O     0.797000000     0.707000000    -3.162000000
H     0.296000000     1.198000000    -3.815000000
H     0.462000000     1.018000000    -2.321000000
O     2.158000000    -3.797000000    -2.103000000
H     2.260000000    -3.837000000    -1.152000000
H     1.704000000    -4.609000000    -2.329000000
O     4.048000000    -2.760000000     6.425000000
H     4.204000000    -3.203000000     5.591000000
H     3.895000000    -1.846000000     6.187000000
O    -5.696000000     2.677000000    -2.462000000
H    -5.920000000     3.166000000    -3.254000000
H    -4.758000000     2.828000000    -2.344000000
O    -5.793000000     0.488000000    -0.670000000
H    -5.975000000     0.942000000     0.152000000
H    -5.886000000     1.163000000    -1.342000000
O    -4.884000000    -3.568000000     0.880000000
H    -5.390000000    -3.342000000     0.099000000
H    -5.152000000    -2.923000000     1.534000000
O     1.560000000     3.647000000    -1.733000000
H     2.251000000     4.199000000    -1.370000000
H     1.980000000     2.799000000    -1.877000000
O     2.869000000     3.035000000     4.029000000
H     3.590000000     3.607000000     4.292000000
H     3.257000000     2.160000000     3.996000000
O    -3.350000000    -0.521000000    -5.191000000
H    -3.520000000     0.358000000    -4.851000000
H    -2.459000000    -0.476000000    -5.538000000
O     0.076000000    -7.544000000     1.704000000
H     0.272000000    -6.607000000     1.726000000
H     0.260000000    -7.847000000     2.593000000
O    -1.607000000    -4.994000000     1.752000000
H    -2.050000000    -4.504000000     2.444000000
H    -0.677000000    -4.930000000     1.970000000
O    -2.641000000    -4.616000000    -4.852000000
H    -2.540000000    -3.792000000    -4.375000000
H    -2.307000000    -4.427000000    -5.729000000
O     2.640000000    -1.125000000    -3.121000000
H     1.824000000    -0.625000000    -3.108000000
H     2.373000000    -2.024000000    -2.931000000
O    -2.971000000     5.719000000    -1.661000000
H    -3.505000000     5.589000000    -2.445000000
H    -3.590000000     5.645000000    -0.934000000
O     3.368000000    -8.134000000     2.167000000
H     2.664000000    -7.949000000     2.789000000
H     3.517000000    -7.301000000     1.720000000
O     4.141000000     0.309000000     3.301000000
H     3.662000000    -0.387000000     2.851000000
H     4.926000000     0.440000000     2.769000000
O    -0.968000000    -0.756000000     3.793000000
H    -0.925000000    -0.163000000     4.543000000
H    -1.560000000    -0.323000000     3.178000000
O     6.913000000     0.348000000     2.051000000
H     6.506000000    -0.085000000     1.300000000
H     7.638000000     0.847000000     1.676000000
O     3.863000000    -3.428000000     3.735000000
H     4.541000000    -3.969000000     3.330000000
H     3.504000000    -2.913000000     3.012000000
O    -2.513000000     4.321000000     4.441000000
H    -2.724000000     3.437000000     4.138000000
H    -2.549000000     4.261000000     5.396000000
O    -4.109000000     2.034000000    -5.097000000
H    -3.797000000     2.929000000    -5.234000000
H    -4.934000000     1.992000000    -5.581000000
O     5.346000000    -1.353000000     0.485000000
H     4.442000000    -1.655000000     0.572000000
H     5.417000000    -1.072000000    -0.427000000
O    -0.281000000     5.574000000    -2.806000000
H     0.300000000     5.025000000    -2.281000000
H    -1.012000000     5.776000000    -2.222000000
O    -1.328000000    -5.366000000    -1.076000000
H    -0.766000000    -4.621000000    -1.287000000
H    -1.552000000    -5.244000000    -0.153000000
O     1.449000000    -6.551000000    -2.015000000
H     1.134000000    -7.343000000    -1.579000000
H     2.401000000    -6.588000000    -1.920000000
O     1.425000000     5.968000000    -4.750000000
H     0.947000000     6.792000000    -4.655000000
H     0.899000000     5.329000000    -4.270000000
