161
-3019.24894
C     1.156000000     0.131000000     0.829000000
H     2.064000000     0.294000000     1.404000000
C     0.341000000     1.199000000     0.415000000
H     0.569000000     2.232000000     0.666000000
C    -0.716000000     0.967000000    -0.444000000
C    -1.453000000     2.051000000    -1.021000000
H    -2.377000000     1.859000000    -1.571000000
H    -1.749000000     2.834000000    -0.321000000
H    -0.815000000     2.459000000    -1.808000000
C    -1.009000000    -0.396000000    -0.762000000
H    -1.753000000    -0.589000000    -1.531000000
C    -0.298000000    -1.465000000    -0.216000000
H    -0.456000000    -2.513000000    -0.457000000
C     0.847000000    -1.214000000     0.628000000
C     1.614000000    -2.318000000     1.273000000
O     1.633000000    -3.427000000     0.789000000
O     2.400000000    -2.103000000     2.119000000
O    -4.820000000     2.990000000     3.222000000
H    -4.042000000     2.432000000     3.208000000
H    -4.792000000     3.461000000     2.389000000
O     2.660000000     0.073000000     5.716000000
H     1.951000000    -0.292000000     5.186000000
H     3.357000000     0.259000000     5.087000000
O     5.299000000    -6.526000000     2.495000000
H     5.110000000    -5.806000000     1.893000000
H     6.136000000    -6.290000000     2.895000000
O    -0.504000000     3.107000000     4.394000000
H    -0.890000000     3.529000000     5.162000000
H     0.405000000     3.406000000     4.388000000
O     3.915000000    -2.856000000     6.461000000
H     3.438000000    -2.044000000     6.634000000
H     4.548000000    -2.919000000     7.176000000
O     1.785000000     2.071000000    -3.022000000
H     2.490000000     2.553000000    -3.456000000
H     1.126000000     2.737000000    -2.826000000
O    -1.279000000     7.074000000    -0.886000000
H    -1.518000000     6.976000000    -1.807000000
H    -0.765000000     6.291000000    -0.688000000
O    -3.152000000     2.032000000    -4.488000000
H    -2.351000000     2.085000000    -5.011000000
H    -3.480000000     2.931000000    -4.460000000
O     2.533000000    -6.466000000     0.776000000
H     1.638000000    -6.287000000     0.486000000
H     2.860000000    -5.621000000     1.082000000
O     0.975000000    -1.509000000    -6.070000000
H     1.382000000    -2.373000000    -6.010000000
H     1.080000000    -1.133000000    -5.197000000
O     2.041000000     3.738000000     2.809000000
H     2.576000000     4.531000000     2.774000000
H     2.674000000     3.021000000     2.795000000
O     2.252000000    -6.914000000     3.875000000
H     2.576000000    -6.898000000     2.974000000
H     2.499000000    -6.061000000     4.233000000
O     0.843000000    -1.398000000     4.142000000
H     1.399000000    -1.497000000     3.369000000
H    -0.043000000    -1.313000000     3.792000000
O    -5.353000000     3.419000000    -0.414000000
H    -5.746000000     4.271000000    -0.222000000
H    -6.056000000     2.918000000    -0.827000000
O    -3.776000000    -1.494000000     1.738000000
H    -3.959000000    -0.687000000     1.258000000
H    -4.616000000    -1.952000000     1.766000000
O     0.159000000     5.258000000     1.449000000
H     0.805000000     4.625000000     1.766000000
H    -0.430000000     5.390000000     2.192000000
O    -1.848000000     1.792000000     2.394000000
H    -1.303000000     1.724000000     1.610000000
H    -1.304000000     2.265000000     3.024000000
O     0.041000000    -5.304000000     0.266000000
H    -0.795000000    -4.897000000     0.491000000
H     0.699000000    -4.661000000     0.531000000
O     3.289000000     3.563000000    -0.127000000
H     3.890000000     3.399000000    -0.853000000
H     3.808000000     3.391000000     0.658000000
O    -4.125000000    -1.985000000    -3.045000000
H    -4.619000000    -2.746000000    -3.352000000
H    -4.423000000    -1.266000000    -3.601000000
O     1.636000000    -0.748000000    -2.780000000
H     1.465000000     0.136000000    -3.103000000
H     0.931000000    -0.915000000    -2.154000000
O     3.300000000    -3.186000000    -1.385000000
H     2.738000000    -3.561000000    -0.708000000
H     2.737000000    -2.565000000    -1.847000000
O    -6.648000000     2.296000000    -2.960000000
H    -7.541000000     2.168000000    -2.639000000
H    -6.556000000     3.245000000    -3.041000000
O    -4.637000000     0.445000000    -0.068000000
H    -5.396000000     0.125000000    -0.557000000
H    -4.689000000     1.398000000    -0.143000000
O    -5.167000000     0.279000000    -4.182000000
H    -4.351000000     0.751000000    -4.019000000
H    -5.853000000     0.934000000    -4.052000000
O     1.393000000     5.177000000    -0.902000000
H     2.155000000     4.672000000    -0.619000000
H     0.901000000     5.339000000    -0.097000000
O     3.961000000     1.799000000     2.844000000
H     4.896000000     1.985000000     2.756000000
H     3.910000000     0.845000000     2.890000000
O    -0.710000000    -7.816000000     0.878000000
H    -0.201000000    -7.112000000     0.477000000
H    -0.552000000    -7.720000000     1.817000000
O    -2.040000000    -3.954000000     1.312000000
H    -2.037000000    -3.003000000     1.423000000
H    -2.572000000    -4.279000000     2.039000000
O    -1.778000000    -3.363000000    -3.395000000
H    -2.464000000    -2.754000000    -3.122000000
H    -1.708000000    -3.238000000    -4.341000000
O    -2.012000000    -6.404000000    -1.591000000
H    -2.779000000    -5.847000000    -1.461000000
H    -1.568000000    -6.400000000    -0.743000000
O    -0.850000000     2.596000000    -5.703000000
H    -0.221000000     1.910000000    -5.924000000
H    -0.360000000     3.199000000    -5.143000000
O    -2.763000000     4.566000000    -2.477000000
H    -3.553000000     4.591000000    -3.017000000
H    -2.861000000     3.775000000    -1.946000000
O     1.113000000    -3.484000000     5.897000000
H     0.670000000    -2.739000000     5.490000000
H     1.905000000    -3.607000000     5.373000000
O     4.243000000    -0.092000000    -1.902000000
H     3.982000000     0.383000000    -1.113000000
H     3.417000000    -0.350000000    -2.311000000
O     4.569000000    -0.950000000     3.009000000
H     3.799000000    -1.501000000     2.863000000
H     5.120000000    -1.102000000     2.241000000
O    -6.760000000    -0.757000000    -1.707000000
H    -6.380000000    -0.235000000    -2.414000000
H    -7.691000000    -0.533000000    -1.717000000
O    -1.753000000    -0.724000000     3.416000000
H    -1.657000000     0.188000000     3.144000000
H    -2.482000000    -1.056000000     2.891000000
O     5.800000000    -1.902000000     0.764000000
H     5.705000000    -1.447000000    -0.073000000
H     6.736000000    -1.854000000     0.958000000
O     3.381000000    -4.397000000     4.394000000
H     3.588000000    -3.882000000     5.174000000
H     3.468000000    -3.779000000     3.669000000
O     6.589000000    -4.224000000    -1.118000000
H     6.438000000    -3.804000000    -0.271000000
H     5.714000000    -4.331000000    -1.492000000
O    -4.243000000     4.731000000    -4.886000000
H    -3.720000000     4.921000000    -5.665000000
H    -5.035000000     5.257000000    -4.995000000
O     4.295000000    -4.002000000     1.568000000
H     4.889000000    -3.323000000     1.250000000
H     3.449000000    -3.563000000     1.647000000
O     3.224000000    -6.192000000    -3.147000000
H     3.717000000    -5.374000000    -3.209000000
H     2.307000000    -5.918000000    -3.127000000
O    -0.165000000     4.612000000    -3.433000000
H     0.341000000     4.588000000    -2.621000000
H    -1.066000000     4.767000000    -3.149000000
O    -4.360000000    -5.065000000    -0.545000000
H    -5.244000000    -4.727000000    -0.405000000
H    -3.844000000    -4.686000000     0.166000000
O     0.672000000    -4.901000000    -3.033000000
H    -0.177000000    -4.468000000    -3.125000000
H     0.890000000    -4.806000000    -2.106000000
O     0.869000000     6.275000000    -5.173000000
H     0.636000000     5.934000000    -6.036000000
H     0.562000000     5.607000000    -4.560000000
