161
-3031.33542
C     1.390000000     0.490000000    -0.444000000
H     2.304000000     1.002000000    -0.734000000
C     0.126000000     1.174000000    -0.528000000
H     0.050000000     2.191000000    -0.903000000
C    -1.101000000     0.576000000    -0.178000000
C    -2.354000000     1.418000000    -0.183000000
H    -2.254000000     2.120000000    -1.012000000
H    -3.244000000     0.791000000    -0.261000000
H    -2.436000000     1.947000000     0.769000000
C    -1.019000000    -0.749000000     0.211000000
H    -1.989000000    -1.167000000     0.466000000
C     0.164000000    -1.421000000     0.411000000
H     0.068000000    -2.476000000     0.654000000
C     1.384000000    -0.752000000     0.112000000
C     2.652000000    -1.511000000     0.459000000
O     2.582000000    -2.584000000     0.991000000
O     3.681000000    -1.046000000     0.172000000
O     0.273000000     2.134000000     2.862000000
H    -0.070000000     1.251000000     2.998000000
H     0.273000000     2.247000000     1.911000000
O     1.797000000     4.733000000     1.839000000
H     2.083000000     3.827000000     1.956000000
H     0.883000000     4.662000000     1.564000000
O    -3.368000000     5.103000000     2.611000000
H    -4.136000000     5.480000000     2.181000000
H    -2.727000000     5.000000000     1.908000000
O     5.881000000    -2.162000000    -3.402000000
H     6.570000000    -1.615000000    -3.025000000
H     6.244000000    -3.048000000    -3.388000000
O    -1.000000000     4.587000000    -1.914000000
H    -1.400000000     5.455000000    -1.868000000
H    -0.176000000     4.726000000    -2.379000000
O     6.862000000    -0.507000000     2.969000000
H     7.232000000    -1.378000000     2.826000000
H     7.138000000    -0.272000000     3.855000000
O    -0.521000000     1.225000000    -3.754000000
H    -1.468000000     1.085000000    -3.769000000
H    -0.407000000     2.050000000    -3.283000000
O     2.124000000    -4.715000000    -0.549000000
H     1.240000000    -4.742000000    -0.916000000
H     2.144000000    -3.909000000    -0.033000000
O     3.079000000     2.503000000     1.625000000
H     3.648000000     2.565000000     0.858000000
H     3.315000000     1.668000000     2.031000000
O     2.987000000    -1.412000000     4.903000000
H     3.106000000    -1.242000000     3.969000000
H     2.621000000    -0.599000000     5.250000000
O    -5.191000000     5.275000000    -3.618000000
H    -5.039000000     4.333000000    -3.550000000
H    -5.582000000     5.393000000    -4.483000000
O    -2.907000000     3.539000000    -3.808000000
H    -2.238000000     3.531000000    -3.123000000
H    -3.111000000     4.466000000    -3.932000000
O    -2.088000000     3.085000000     4.164000000
H    -2.534000000     3.538000000     3.448000000
H    -1.192000000     2.966000000     3.850000000
O    -5.266000000     2.853000000     0.755000000
H    -6.115000000     3.294000000     0.739000000
H    -4.807000000     3.189000000    -0.015000000
O     4.563000000     3.847000000     3.353000000
H     3.934000000     3.345000000     2.834000000
H     4.526000000     3.449000000     4.223000000
O     1.055000000    -3.307000000     3.546000000
H     1.839000000    -2.878000000     3.891000000
H     1.113000000    -3.184000000     2.598000000
O     6.711000000     2.314000000     2.065000000
H     5.979000000     2.639000000     2.589000000
H     6.659000000     1.362000000     2.145000000
O     0.368000000    -6.036000000     2.874000000
H     0.324000000    -5.218000000     3.368000000
H    -0.319000000    -6.583000000     3.254000000
O    -5.513000000    -1.556000000    -0.920000000
H    -5.174000000    -0.980000000    -1.606000000
H    -4.885000000    -2.278000000    -0.882000000
O    -5.747000000    -1.012000000     4.271000000
H    -6.028000000    -0.158000000     3.942000000
H    -4.800000000    -1.023000000     4.131000000
O     0.226000000    -1.805000000    -2.913000000
H     0.591000000    -0.947000000    -3.127000000
H    -0.310000000    -1.651000000    -2.135000000
O     2.657000000    -7.014000000     4.232000000
H     2.364000000    -6.717000000     5.093000000
H     2.186000000    -6.456000000     3.613000000
O     3.792000000    -0.563000000    -2.525000000
H     3.987000000    -0.542000000    -1.588000000
H     4.222000000    -1.358000000    -2.841000000
O     4.301000000     0.066000000     2.301000000
H     5.162000000    -0.232000000     2.595000000
H     4.193000000    -0.327000000     1.435000000
O    -2.840000000     1.400000000    -5.367000000
H    -3.237000000     1.616000000    -6.211000000
H    -2.708000000     2.247000000    -4.941000000
O    -6.662000000    -2.263000000     1.534000000
H    -6.298000000    -1.744000000     0.817000000
H    -6.102000000    -2.062000000     2.284000000
O     5.942000000     1.428000000    -1.994000000
H     5.173000000     0.924000000    -2.262000000
H     6.457000000     0.817000000    -1.467000000
O     4.954000000     3.601000000    -0.553000000
H     5.303000000     2.821000000    -0.985000000
H     5.696000000     4.205000000    -0.513000000
O     3.036000000     5.253000000    -0.484000000
H     2.668000000     5.005000000     0.363000000
H     3.750000000     4.631000000    -0.627000000
O     0.035000000    -4.644000000    -2.511000000
H    -0.644000000    -5.283000000    -2.295000000
H    -0.443000000    -3.831000000    -2.672000000
O    -3.489000000    -3.649000000     1.677000000
H    -4.382000000    -3.897000000     1.439000000
H    -2.964000000    -4.425000000     1.481000000
O     1.666000000     3.669000000    -4.329000000
H     2.137000000     2.913000000    -3.977000000
H     1.491000000     3.439000000    -5.241000000
O    -0.752000000    -0.297000000     4.118000000
H    -1.088000000    -1.190000000     4.043000000
H    -0.184000000    -0.318000000     4.888000000
O     7.393000000    -3.898000000    -1.795000000
H     6.501000000    -3.656000000    -1.546000000
H     7.423000000    -4.848000000    -1.686000000
O     6.486000000    -1.069000000    -0.666000000
H     6.898000000    -1.854000000    -0.305000000
H     5.571000000    -1.132000000    -0.391000000
O    -3.414000000    -1.229000000     2.777000000
H    -3.442000000    -1.980000000     2.185000000
H    -2.681000000    -1.415000000     3.365000000
O     4.966000000    -3.268000000    -0.496000000
H     4.510000000    -2.449000000    -0.299000000
H     4.505000000    -3.929000000     0.020000000
O     7.267000000    -3.471000000     2.397000000
H     7.813000000    -4.241000000     2.239000000
H     6.370000000    -3.789000000     2.302000000
O    -1.395000000    -5.290000000     0.795000000
H    -1.238000000    -5.779000000    -0.013000000
H    -0.612000000    -5.444000000     1.323000000
O    -2.681000000    -1.760000000    -4.265000000
H    -2.733000000    -0.809000000    -4.358000000
H    -3.535000000    -2.076000000    -4.560000000
O     4.460000000    -4.218000000     2.518000000
H     4.242000000    -4.374000000     3.437000000
H     3.794000000    -3.601000000     2.215000000
O     4.220000000    -6.326000000     0.896000000
H     4.464000000    -5.671000000     1.551000000
H     3.367000000    -6.035000000     0.573000000
O     2.966000000     1.184000000    -4.386000000
H     2.992000000     0.485000000    -3.733000000
H     2.611000000     0.766000000    -5.170000000
O    -0.790000000     4.823000000     0.862000000
H    -1.096000000     4.372000000     0.074000000
H    -0.958000000     5.749000000     0.688000000
O    -5.371000000     1.620000000     3.110000000
H    -5.462000000     2.070000000     2.270000000
H    -4.592000000     1.073000000     3.006000000
O    -2.919000000    -3.325000000    -2.029000000
H    -2.533000000    -2.752000000    -1.367000000
H    -2.839000000    -2.835000000    -2.847000000
O    -4.978000000     0.459000000    -2.528000000
H    -5.737000000     0.953000000    -2.838000000
H    -4.286000000     0.663000000    -3.157000000
O    -1.590000000    -2.832000000     4.484000000
H    -2.179000000    -3.541000000     4.223000000
H    -0.714000000    -3.162000000     4.284000000
