161
-3022.56842
C     0.730000000     0.405000000    -1.208000000
H     1.232000000     0.837000000    -2.070000000
C     0.134000000     1.226000000    -0.324000000
H     0.133000000     2.301000000    -0.485000000
C    -0.484000000     0.799000000     0.773000000
C    -1.118000000     1.656000000     1.819000000
H    -0.573000000     2.586000000     1.995000000
H    -2.124000000     1.872000000     1.453000000
H    -1.046000000     1.132000000     2.774000000
C    -0.498000000    -0.566000000     1.018000000
H    -1.018000000    -0.949000000     1.892000000
C    -0.003000000    -1.483000000     0.111000000
H    -0.182000000    -2.537000000     0.308000000
C     0.568000000    -0.937000000    -1.039000000
C     1.154000000    -1.870000000    -2.051000000
O     1.314000000    -3.019000000    -1.919000000
O     1.785000000    -1.447000000    -3.043000000
O     2.601000000     1.172000000    -6.336000000
H     2.547000000     1.064000000    -7.286000000
H     2.843000000     2.090000000    -6.213000000
O     0.989000000    -5.323000000    -3.766000000
H     0.305000000    -5.562000000    -3.141000000
H     1.144000000    -4.392000000    -3.607000000
O     0.584000000     4.782000000    -1.250000000
H     0.638000000     4.661000000    -2.198000000
H    -0.343000000     4.663000000    -1.046000000
O    -1.653000000    -3.745000000    -1.550000000
H    -1.175000000    -3.000000000    -1.912000000
H    -1.166000000    -4.512000000    -1.851000000
O    -3.767000000    -1.688000000     1.367000000
H    -3.483000000    -1.067000000     0.697000000
H    -3.963000000    -1.145000000     2.130000000
O    -1.333000000    -2.951000000    -4.999000000
H    -0.397000000    -3.005000000    -5.194000000
H    -1.722000000    -3.674000000    -5.491000000
O    -0.809000000    -6.423000000    -1.997000000
H    -0.674000000    -6.446000000    -1.050000000
H    -1.447000000    -7.117000000    -2.165000000
O     4.286000000    -5.773000000    -2.191000000
H     3.527000000    -6.041000000    -1.674000000
H     4.153000000    -4.837000000    -2.346000000
O     0.017000000     5.517000000     4.882000000
H     0.395000000     4.663000000     5.095000000
H    -0.621000000     5.676000000     5.576000000
O    -0.956000000     1.485000000     6.505000000
H    -1.239000000     1.003000000     7.283000000
H    -1.662000000     2.111000000     6.341000000
O     3.994000000     4.134000000    -0.752000000
H     4.768000000     4.225000000    -0.196000000
H     3.566000000     4.989000000    -0.709000000
O    -4.237000000    -0.802000000     4.033000000
H    -4.778000000    -0.747000000     4.821000000
H    -3.990000000     0.104000000     3.848000000
O     2.886000000     4.370000000     2.746000000
H     3.282000000     3.544000000     2.471000000
H     2.289000000     4.126000000     3.454000000
O    -5.139000000    -4.356000000     1.171000000
H    -4.732000000    -4.308000000     0.307000000
H    -4.552000000    -3.859000000     1.741000000
O    -5.515000000     1.044000000     0.441000000
H    -5.249000000     1.957000000     0.332000000
H    -5.284000000     0.627000000    -0.388000000
O    -3.665000000     2.850000000    -0.796000000
H    -4.349000000     3.519000000    -0.791000000
H    -2.846000000     3.345000000    -0.803000000
O     2.281000000     0.132000000     3.788000000
H     2.275000000     0.718000000     3.030000000
H     3.208000000     0.022000000     3.998000000
O    -2.663000000    -1.026000000    -3.675000000
H    -2.096000000    -1.606000000    -4.184000000
H    -2.798000000    -0.266000000    -4.241000000
O    -2.007000000     4.865000000     0.035000000
H    -2.295000000     5.774000000    -0.037000000
H    -1.803000000     4.751000000     0.964000000
O    -3.852000000    -3.098000000     5.374000000
H    -4.499000000    -3.802000000     5.326000000
H    -4.208000000    -2.407000000     4.815000000
O     4.143000000     2.202000000     1.551000000
H     5.038000000     2.089000000     1.873000000
H     4.123000000     1.718000000     0.726000000
O     0.588000000     1.141000000    -4.625000000
H     0.414000000     0.370000000    -4.084000000
H     1.373000000     0.912000000    -5.122000000
O    -2.625000000    -5.102000000     3.557000000
H    -2.688000000    -4.816000000     2.646000000
H    -3.080000000    -4.422000000     4.053000000
O     1.200000000     2.897000000     4.678000000
H     0.333000000     2.525000000     4.841000000
H     1.735000000     2.585000000     5.407000000
O     3.950000000     0.010000000    -3.586000000
H     3.232000000    -0.524000000    -3.245000000
H     3.619000000     0.354000000    -4.415000000
O    -2.577000000     6.510000000     3.555000000
H    -2.563000000     7.335000000     3.069000000
H    -1.946000000     6.639000000     4.263000000
O     1.432000000    -2.627000000    -5.277000000
H     2.279000000    -3.032000000    -5.465000000
H     1.595000000    -2.076000000    -4.512000000
O     3.756000000     4.153000000    -3.661000000
H     4.560000000     3.665000000    -3.839000000
H     3.538000000     3.932000000    -2.755000000
O     5.806000000     2.480000000    -4.006000000
H     5.628000000     1.631000000    -3.601000000
H     6.464000000     2.882000000    -3.439000000
O     2.564000000    -2.619000000     3.208000000
H     2.112000000    -1.781000000     3.308000000
H     1.946000000    -3.168000000     2.724000000
O    -4.097000000     4.358000000     2.304000000
H    -4.983000000     4.719000000     2.272000000
H    -3.565000000     5.061000000     2.677000000
O     0.465000000    -7.536000000    -5.158000000
H     0.619000000    -6.955000000    -4.413000000
H     0.049000000    -6.978000000    -5.814000000
O    -2.383000000    -3.949000000     1.115000000
H    -2.694000000    -3.080000000     1.367000000
H    -2.230000000    -3.885000000     0.172000000
O    -3.371000000     0.037000000    -1.242000000
H    -2.929000000    -0.355000000    -1.995000000
H    -3.060000000     0.942000000    -1.226000000
O     2.456000000     5.987000000     0.523000000
H     1.848000000     5.621000000    -0.120000000
H     2.629000000     5.265000000     1.126000000
O     0.565000000    -4.804000000     2.148000000
H    -0.372000000    -4.633000000     2.243000000
H     0.717000000    -5.596000000     2.664000000
O    -4.618000000     1.758000000     3.096000000
H    -4.939000000     1.304000000     2.317000000
H    -4.466000000     2.657000000     2.804000000
O     5.866000000    -1.873000000    -0.289000000
H     5.649000000    -1.012000000    -0.648000000
H     5.319000000    -1.951000000     0.493000000
O     4.759000000     0.666000000    -1.160000000
H     4.233000000     1.461000000    -1.074000000
H     4.597000000     0.366000000    -2.054000000
O     1.212000000    -0.382000000     6.188000000
H     0.502000000     0.179000000     6.500000000
H     1.275000000    -0.191000000     5.253000000
O     1.944000000    -5.369000000    -0.626000000
H     1.600000000    -5.032000000     0.201000000
H     1.913000000    -4.619000000    -1.221000000
O     3.996000000    -3.113000000    -2.804000000
H     3.088000000    -2.867000000    -2.623000000
H     4.493000000    -2.306000000    -2.669000000
O     3.334000000    -7.674000000     0.454000000
H     3.335000000    -7.710000000     1.410000000
H     2.755000000    -6.941000000     0.242000000
O     0.626000000    -1.289000000    -7.660000000
H     0.891000000    -1.802000000    -6.897000000
H     1.447000000    -1.071000000    -8.100000000
O     0.307000000     4.400000000    -3.842000000
H    -0.216000000     4.433000000    -4.643000000
H     1.109000000     3.945000000    -4.098000000
O    -1.071000000    -2.447000000     5.391000000
H    -0.754000000    -1.589000000     5.671000000
H    -2.017000000    -2.335000000     5.298000000
O     1.022000000     7.243000000     2.993000000
H     0.745000000     6.588000000     3.634000000
H     1.641000000     6.779000000     2.429000000
O    -2.338000000     1.612000000    -4.862000000
H    -1.660000000     2.285000000    -4.807000000
H    -3.050000000     1.944000000    -4.316000000
