161
-3071.33369
C     1.122000000     0.242000000    -0.919000000
H     1.703000000     0.755000000    -1.680000000
C     0.761000000     1.073000000     0.150000000
H     1.130000000     2.093000000     0.219000000
C    -0.285000000     0.708000000     1.008000000
C    -0.849000000     1.753000000     1.923000000
H    -0.256000000     1.968000000     2.814000000
H    -1.099000000     2.711000000     1.462000000
H    -1.805000000     1.341000000     2.252000000
C    -0.768000000    -0.574000000     0.857000000
H    -1.475000000    -0.976000000     1.579000000
C    -0.426000000    -1.409000000    -0.184000000
H    -0.797000000    -2.426000000    -0.286000000
C     0.574000000    -1.039000000    -1.076000000
C     0.811000000    -1.859000000    -2.352000000
O     0.353000000    -3.029000000    -2.436000000
O     1.313000000    -1.337000000    -3.325000000
O     1.608000000     1.480000000    -6.709000000
H     1.026000000     1.338000000    -7.456000000
H     2.172000000     0.707000000    -6.694000000
O     1.802000000    -7.937000000    -3.778000000
H     0.997000000    -8.249000000    -4.193000000
H     1.665000000    -6.997000000    -3.666000000
O     0.485000000    -5.392000000    -3.457000000
H    -0.450000000    -5.414000000    -3.254000000
H     0.768000000    -4.518000000    -3.186000000
O    -3.695000000     3.487000000     0.295000000
H    -3.355000000     2.886000000    -0.368000000
H    -4.333000000     2.968000000     0.784000000
O    -1.997000000    -3.227000000    -3.942000000
H    -1.233000000    -2.873000000    -3.486000000
H    -2.185000000    -4.050000000    -3.492000000
O    -3.583000000     2.946000000     3.950000000
H    -2.784000000     3.465000000     4.032000000
H    -3.898000000     2.846000000     4.849000000
O    -3.710000000     5.240000000    -2.247000000
H    -4.638000000     5.457000000    -2.336000000
H    -3.687000000     4.556000000    -1.577000000
O    -1.618000000    -6.301000000    -6.390000000
H    -1.072000000    -5.629000000    -5.981000000
H    -2.398000000    -5.830000000    -6.683000000
O     5.899000000     2.630000000    -1.197000000
H     5.444000000     3.377000000    -0.809000000
H     5.675000000     2.670000000    -2.127000000
O    -2.069000000    -5.533000000    -2.435000000
H    -1.679000000    -5.370000000    -1.577000000
H    -2.583000000    -6.332000000    -2.316000000
O     4.348000000     1.378000000     0.742000000
H     5.031000000     1.817000000     0.236000000
H     4.447000000     0.451000000     0.524000000
O    -1.377000000     4.332000000     4.218000000
H    -1.156000000     4.107000000     5.121000000
H    -1.115000000     5.248000000     4.128000000
O     2.119000000    -2.334000000    -8.765000000
H     2.128000000    -3.283000000    -8.887000000
H     1.886000000    -2.213000000    -7.844000000
O     3.189000000     3.425000000     5.398000000
H     4.060000000     3.210000000     5.731000000
H     3.210000000     3.157000000     4.480000000
O     0.232000000     5.660000000     0.370000000
H     0.055000000     6.135000000     1.182000000
H    -0.627000000     5.559000000    -0.040000000
O     5.086000000    -1.198000000    -0.822000000
H     5.653000000    -1.514000000    -0.119000000
H     4.558000000    -1.959000000    -1.064000000
O     2.161000000     5.835000000    -1.681000000
H     2.167000000     6.792000000    -1.704000000
H     1.510000000     5.615000000    -1.016000000
O    -4.596000000    -2.381000000    -3.127000000
H    -4.471000000    -1.607000000    -2.578000000
H    -3.712000000    -2.628000000    -3.398000000
O    -0.195000000    -1.585000000     4.622000000
H    -0.066000000    -0.876000000     5.252000000
H     0.438000000    -1.406000000     3.927000000
O    -2.471000000     0.303000000    -3.869000000
H    -1.870000000     0.991000000    -3.583000000
H    -2.082000000    -0.034000000    -4.676000000
O     2.409000000     0.436000000     5.826000000
H     2.753000000    -0.299000000     5.318000000
H     2.773000000     1.212000000     5.400000000
O     0.307000000     0.867000000    -4.328000000
H     0.810000000     0.087000000    -4.096000000
H     0.782000000     1.248000000    -5.067000000
O    -4.140000000    -5.405000000     2.693000000
H    -4.014000000    -4.502000000     2.984000000
H    -4.770000000    -5.339000000     1.975000000
O    -0.858000000     2.842000000     6.683000000
H    -0.390000000     2.036000000     6.467000000
H    -1.342000000     2.631000000     7.481000000
O     3.971000000    -0.170000000    -3.107000000
H     4.352000000    -0.320000000    -2.242000000
H     3.106000000    -0.578000000    -3.061000000
O     1.060000000    -1.701000000    -6.003000000
H     0.132000000    -1.468000000    -6.022000000
H     1.294000000    -1.675000000    -5.076000000
O     5.834000000    -1.246000000    -5.057000000
H     5.073000000    -1.153000000    -4.483000000
H     5.509000000    -1.746000000    -5.806000000
O    -5.280000000     2.211000000     1.885000000
H    -6.048000000     2.510000000     2.373000000
H    -4.563000000     2.258000000     2.516000000
O     0.314000000    -4.510000000    -5.944000000
H     0.698000000    -3.640000000    -6.052000000
H     0.610000000    -4.797000000    -5.080000000
O     1.801000000     4.321000000    -3.951000000
H     2.555000000     3.731000000    -3.963000000
H     1.983000000     4.927000000    -3.232000000
O     4.376000000     2.682000000    -3.604000000
H     4.249000000     1.734000000    -3.589000000
H     4.859000000     2.846000000    -4.415000000
O    -4.602000000    -3.433000000     0.330000000
H    -3.980000000    -3.055000000     0.952000000
H    -4.469000000    -2.932000000    -0.475000000
O    -5.263000000     5.468000000     2.820000000
H    -4.753000000     6.141000000     3.272000000
H    -4.713000000     4.685000000     2.858000000
O    -3.884000000    -0.588000000    -1.136000000
H    -3.108000000    -0.185000000    -1.527000000
H    -4.304000000     0.122000000    -0.652000000
O    -2.217000000     5.699000000     1.229000000
H    -2.918000000     5.115000000     0.940000000
H    -2.041000000     5.434000000     2.132000000
O     0.553000000    -4.392000000     5.117000000
H     0.762000000    -4.882000000     4.322000000
H     0.627000000    -3.473000000     4.859000000
O    -1.009000000    -6.155000000     0.136000000
H    -0.806000000    -7.046000000     0.419000000
H    -1.766000000    -5.902000000     0.665000000
O     3.636000000    -3.444000000    -0.968000000
H     3.356000000    -3.558000000    -1.876000000
H     2.967000000    -3.895000000    -0.453000000
O     1.690000000    -5.030000000     2.658000000
H     2.615000000    -4.795000000     2.734000000
H     1.468000000    -4.838000000     1.747000000
O     3.160000000     2.146000000     3.035000000
H     2.293000000     2.306000000     2.665000000
H     3.654000000     1.741000000     2.322000000
O     5.079000000     5.059000000    -0.497000000
H     5.551000000     5.636000000     0.103000000
H     4.156000000     5.268000000    -0.353000000
O    -4.802000000    -0.510000000     4.144000000
H    -5.374000000     0.256000000     4.095000000
H    -4.546000000    -0.561000000     5.065000000
O     1.262000000    -4.630000000    -0.227000000
H     0.527000000    -5.234000000    -0.123000000
H     1.020000000    -4.084000000    -0.975000000
O     3.170000000    -3.663000000    -3.684000000
H     2.565000000    -2.927000000    -3.777000000
H     3.039000000    -4.181000000    -4.478000000
O    -1.384000000    -0.668000000    -6.518000000
H    -1.113000000    -0.713000000    -7.435000000
H    -1.841000000     0.170000000    -6.444000000
O    -0.736000000     3.191000000    -3.241000000
H     0.161000000     3.523000000    -3.262000000
H    -0.761000000     2.525000000    -3.929000000
O    -3.413000000    -2.623000000     2.799000000
H    -3.771000000    -1.911000000     3.329000000
H    -2.505000000    -2.705000000     3.091000000
O    -2.165000000     1.662000000    -1.172000000
H    -1.740000000     2.388000000    -1.628000000
H    -1.445000000     1.087000000    -0.914000000
