161
-3047.49854
C     0.384000000     0.777000000    -1.158000000
H     0.714000000     1.505000000    -1.895000000
C     0.477000000     1.153000000     0.133000000
H     0.801000000     2.144000000     0.440000000
C     0.151000000     0.338000000     1.147000000
C     0.125000000     0.789000000     2.630000000
H    -0.252000000     1.801000000     2.794000000
H    -0.503000000     0.082000000     3.175000000
H     1.137000000     0.767000000     3.040000000
C    -0.285000000    -0.936000000     0.856000000
H    -0.524000000    -1.643000000     1.646000000
C    -0.351000000    -1.342000000    -0.503000000
H    -0.763000000    -2.334000000    -0.668000000
C    -0.057000000    -0.470000000    -1.532000000
C    -0.350000000    -0.765000000    -2.949000000
O    -0.745000000    -1.858000000    -3.276000000
O     0.035000000    -0.014000000    -3.878000000
O     1.906000000    -3.002000000    -2.135000000
H     2.193000000    -2.403000000    -2.824000000
H     1.169000000    -2.554000000    -1.720000000
O    -2.309000000     0.516000000    -5.379000000
H    -2.039000000     0.375000000    -6.286000000
H    -1.500000000     0.445000000    -4.873000000
O     1.606000000    -5.973000000    -2.874000000
H     2.412000000    -6.467000000    -2.720000000
H     1.812000000    -5.083000000    -2.589000000
O    -3.131000000     2.709000000     6.018000000
H    -3.085000000     3.661000000     5.936000000
H    -2.218000000     2.431000000     6.103000000
O     0.397000000    -3.794000000    -5.210000000
H    -0.220000000    -4.398000000    -5.623000000
H    -0.013000000    -3.566000000    -4.376000000
O    -4.491000000     2.261000000    -5.714000000
H    -3.664000000     1.782000000    -5.664000000
H    -5.067000000     1.692000000    -6.224000000
O     4.308000000    -0.227000000     3.546000000
H     5.236000000    -0.407000000     3.392000000
H     3.848000000    -0.793000000     2.926000000
O     4.252000000     1.443000000    -2.263000000
H     4.712000000     2.092000000    -2.796000000
H     3.446000000     1.263000000    -2.748000000
O    -1.310000000     3.220000000    -3.895000000
H    -1.470000000     3.842000000    -4.605000000
H    -2.177000000     2.875000000    -3.680000000
O    -0.902000000    -4.290000000    -2.549000000
H    -0.923000000    -3.340000000    -2.666000000
H    -0.921000000    -4.414000000    -1.600000000
O    -4.791000000    -2.844000000     4.126000000
H    -5.103000000    -2.209000000     4.771000000
H    -3.870000000    -2.620000000     3.996000000
O    -2.816000000     4.467000000     2.063000000
H    -2.496000000     3.742000000     1.526000000
H    -2.025000000     4.863000000     2.429000000
O    -2.273000000     5.730000000    -1.822000000
H    -1.811000000     4.951000000    -2.132000000
H    -2.913000000     5.396000000    -1.194000000
O     4.034000000     5.432000000    -0.279000000
H     4.390000000     5.487000000    -1.165000000
H     3.188000000     4.999000000    -0.387000000
O    -0.426000000     5.156000000     3.162000000
H    -0.550000000     6.093000000     3.012000000
H     0.497000000     5.001000000     2.960000000
O     1.948000000     5.390000000     1.957000000
H     1.914000000     6.258000000     2.359000000
H     2.798000000     5.037000000     2.222000000
O     0.560000000    -1.176000000    -6.092000000
H     0.806000000    -2.099000000    -6.148000000
H     0.221000000    -1.073000000    -5.203000000
O     1.181000000     5.371000000    -1.042000000
H     0.890000000     5.559000000    -0.150000000
H     1.240000000     6.230000000    -1.461000000
O    -3.459000000    -0.793000000    -3.073000000
H    -3.412000000    -0.670000000    -4.021000000
H    -2.610000000    -1.168000000    -2.838000000
O     1.943000000     3.429000000     5.520000000
H     2.207000000     3.132000000     4.649000000
H     2.758000000     3.452000000     6.021000000
O     2.119000000     1.572000000    -4.124000000
H     1.322000000     1.042000000    -4.124000000
H     1.813000000     2.464000000    -3.962000000
O    -1.457000000    -4.533000000     0.513000000
H    -0.718000000    -4.726000000     1.090000000
H    -2.125000000    -5.174000000     0.757000000
O    -2.491000000    -2.539000000    -5.538000000
H    -2.624000000    -3.487000000    -5.514000000
H    -1.833000000    -2.373000000    -4.862000000
O     1.146000000     0.636000000    -7.868000000
H     0.942000000     0.050000000    -7.140000000
H     2.028000000     0.380000000    -8.141000000
O    -3.927000000    -2.007000000     0.815000000
H    -3.031000000    -1.719000000     0.985000000
H    -3.885000000    -2.962000000     0.865000000
O    -4.682000000     0.296000000    -0.804000000
H    -4.355000000    -0.205000000    -1.551000000
H    -4.532000000    -0.273000000    -0.049000000
O    -0.386000000    -6.621000000    -4.906000000
H     0.157000000    -6.200000000    -4.240000000
H    -1.282000000    -6.512000000    -4.589000000
O     3.689000000     2.092000000    -6.636000000
H     3.029000000     2.226000000    -5.956000000
H     4.501000000     1.935000000    -6.154000000
O    -3.819000000    -4.389000000    -1.275000000
H    -3.832000000    -3.552000000    -1.740000000
H    -2.969000000    -4.772000000    -1.495000000
O    -5.104000000    -3.227000000    -3.875000000
H    -5.273000000    -3.174000000    -4.816000000
H    -5.142000000    -2.319000000    -3.574000000
O    -0.614000000     1.895000000     5.493000000
H     0.097000000     2.480000000     5.233000000
H    -0.337000000     1.031000000     5.189000000
O    -2.026000000    -0.930000000     5.048000000
H    -2.302000000    -0.778000000     5.952000000
H    -1.466000000    -1.705000000     5.095000000
O     1.196000000     5.040000000    -5.866000000
H     0.270000000     5.279000000    -5.830000000
H     1.393000000     4.712000000    -4.988000000
O     0.858000000    -5.523000000     2.095000000
H     0.832000000    -6.310000000     2.639000000
H     1.773000000    -5.451000000     1.821000000
O     3.448000000    -1.901000000     1.424000000
H     2.749000000    -1.318000000     1.127000000
H     3.537000000    -2.546000000     0.721000000
O     5.158000000     2.499000000     0.229000000
H     4.365000000     2.628000000     0.749000000
H     4.843000000     2.166000000    -0.611000000
O     3.311000000     2.516000000     3.385000000
H     3.668000000     1.633000000     3.479000000
H     4.055000000     3.095000000     3.549000000
O    -1.591000000    -0.152000000    -8.555000000
H    -0.660000000    -0.143000000    -8.333000000
H    -1.613000000    -0.363000000    -9.488000000
O    -3.330000000     1.046000000     3.523000000
H    -3.292000000     1.847000000     4.045000000
H    -2.844000000     0.402000000     4.038000000
O     0.102000000     5.367000000     5.849000000
H     0.803000000     4.721000000     5.934000000
H    -0.096000000     5.384000000     4.912000000
O     4.026000000    -3.770000000    -0.423000000
H     3.876000000    -4.460000000     0.223000000
H     3.263000000    -3.812000000    -0.999000000
O     3.120000000    -1.117000000    -4.218000000
H     3.212000000    -1.376000000    -5.135000000
H     2.515000000    -0.376000000    -4.238000000
O    -4.016000000    -0.884000000    -7.099000000
H    -3.553000000    -0.603000000    -7.888000000
H    -3.327000000    -1.212000000    -6.521000000
O     1.090000000     4.048000000    -3.374000000
H     0.198000000     3.700000000    -3.368000000
H     1.182000000     4.487000000    -2.528000000
O     1.882000000    -3.194000000     3.590000000
H     2.335000000    -2.783000000     2.854000000
H     1.298000000    -3.835000000     3.183000000
O    -3.067000000     2.305000000     0.268000000
H    -2.912000000     1.520000000     0.795000000
H    -3.598000000     1.999000000    -0.467000000
O    -0.104000000    -2.836000000     5.822000000
H     0.315000000    -3.369000000     6.498000000
H     0.500000000    -2.872000000     5.081000000
O     4.892000000    -0.188000000     6.386000000
H     4.953000000    -1.141000000     6.447000000
H     4.359000000    -0.032000000     5.607000000
