161
-3067.59442
C     0.797000000     0.955000000    -0.724000000
H     1.557000000     1.649000000    -1.073000000
C     0.621000000     0.893000000     0.656000000
H     1.187000000     1.608000000     1.246000000
C    -0.198000000    -0.036000000     1.223000000
C    -0.193000000    -0.084000000     2.752000000
H    -1.075000000     0.339000000     3.237000000
H    -0.247000000    -1.148000000     2.995000000
H     0.695000000     0.376000000     3.192000000
C    -0.796000000    -0.977000000     0.398000000
H    -1.352000000    -1.817000000     0.807000000
C    -0.761000000    -0.812000000    -1.037000000
H    -1.344000000    -1.484000000    -1.662000000
C     0.064000000     0.147000000    -1.597000000
C     0.280000000     0.137000000    -3.083000000
O    -0.542000000    -0.402000000    -3.811000000
O     1.300000000     0.654000000    -3.511000000
O    -0.805000000    -6.334000000     3.504000000
H    -0.500000000    -5.691000000     2.864000000
H    -1.497000000    -5.882000000     3.987000000
O     3.204000000    -1.026000000     1.270000000
H     2.578000000    -1.386000000     0.641000000
H     3.921000000    -0.693000000     0.730000000
O     6.135000000     0.729000000    -4.136000000
H     6.749000000     1.167000000    -3.547000000
H     5.356000000     0.576000000    -3.600000000
O    -3.136000000     1.357000000     0.991000000
H    -3.167000000     0.429000000     1.224000000
H    -3.922000000     1.498000000     0.463000000
O    -0.872000000    -2.942000000    -4.085000000
H    -1.409000000    -3.036000000    -4.871000000
H    -0.673000000    -2.007000000    -4.041000000
O     3.715000000     2.656000000    -0.006000000
H     3.640000000     1.791000000    -0.408000000
H     4.294000000     2.523000000     0.744000000
O     5.050000000     2.071000000    -6.399000000
H     4.125000000     1.924000000    -6.596000000
H     5.226000000     1.511000000    -5.642000000
O    -0.139000000     3.921000000     3.870000000
H    -0.171000000     4.797000000     3.486000000
H    -1.006000000     3.553000000     3.700000000
O     2.925000000     3.106000000     4.023000000
H     2.248000000     3.748000000     3.811000000
H     3.378000000     2.952000000     3.194000000
O    -1.572000000    -0.494000000    -6.244000000
H    -2.148000000    -1.254000000    -6.164000000
H    -1.182000000    -0.396000000    -5.375000000
O    -2.256000000    -3.344000000    -6.423000000
H    -2.676000000    -4.202000000    -6.369000000
H    -1.815000000    -3.346000000    -7.273000000
O     1.815000000     5.656000000    -1.897000000
H     1.565000000     5.053000000    -1.196000000
H     2.630000000     5.294000000    -2.244000000
O     1.412000000    -3.157000000    -7.391000000
H     2.223000000    -3.209000000    -7.897000000
H     1.383000000    -2.254000000    -7.076000000
O     3.400000000    -2.070000000    -4.678000000
H     2.861000000    -1.599000000    -5.314000000
H     2.803000000    -2.708000000    -4.285000000
O     3.424000000     2.623000000     6.983000000
H     2.722000000     3.265000000     7.091000000
H     3.396000000     2.390000000     6.055000000
O    -1.287000000     2.864000000    -6.958000000
H    -0.767000000     2.839000000    -6.156000000
H    -1.289000000     3.786000000    -7.215000000
O    -3.642000000    -0.315000000    -2.251000000
H    -3.673000000     0.307000000    -1.524000000
H    -3.112000000     0.122000000    -2.918000000
O     0.360000000     1.607000000     5.330000000
H     0.503000000     2.270000000     4.654000000
H     1.133000000     1.044000000     5.281000000
O     3.632000000    -0.236000000    -2.847000000
H     2.841000000     0.245000000    -3.091000000
H     3.636000000    -1.000000000    -3.424000000
O    -2.864000000    -4.206000000     0.282000000
H    -3.527000000    -4.878000000     0.441000000
H    -3.304000000    -3.381000000     0.489000000
O    -4.682000000    -3.366000000    -4.444000000
H    -3.826000000    -3.141000000    -4.808000000
H    -4.694000000    -4.323000000    -4.434000000
O     0.366000000     2.664000000    -5.120000000
H     0.426000000     3.521000000    -4.698000000
H     0.797000000     2.065000000    -4.510000000
O    -3.777000000    -1.163000000     2.015000000
H    -3.231000000    -1.610000000     2.661000000
H    -4.658000000    -1.188000000     2.388000000
O    -4.977000000    -2.668000000    -1.605000000
H    -4.255000000    -2.041000000    -1.558000000
H    -4.935000000    -3.015000000    -2.496000000
O     4.558000000     3.975000000    -2.216000000
H     4.129000000     3.595000000    -1.449000000
H     5.489000000     3.974000000    -1.995000000
O     0.203000000     5.136000000    -4.005000000
H    -0.366000000     5.796000000    -4.400000000
H     0.518000000     5.543000000    -3.198000000
O     4.980000000    -2.940000000    -2.029000000
H     5.341000000    -2.589000000    -2.843000000
H     4.195000000    -2.415000000    -1.869000000
O     2.296000000     2.697000000    -7.204000000
H     2.031000000     3.577000000    -7.471000000
H     1.868000000     2.564000000    -6.358000000
O     0.726000000     0.650000000     8.350000000
H     1.166000000     0.226000000     7.612000000
H     0.581000000    -0.055000000     8.980000000
O    -1.516000000    -1.715000000     5.992000000
H    -1.249000000    -2.177000000     6.786000000
H    -0.805000000    -1.096000000     5.824000000
O    -1.935000000     3.494000000    -3.424000000
H    -2.245000000     3.560000000    -2.521000000
H    -1.048000000     3.853000000    -3.399000000
O    -2.774000000     3.052000000     3.244000000
H    -3.349000000     3.784000000     3.020000000
H    -2.677000000     2.564000000     2.427000000
O     0.241000000    -4.395000000     1.517000000
H    -0.501000000    -4.575000000     0.940000000
H     0.866000000    -3.925000000     0.965000000
O    -0.744000000    -4.671000000    -1.578000000
H    -1.481000000    -4.485000000    -0.997000000
H    -0.981000000    -4.254000000    -2.407000000
O     1.850000000    -2.681000000    -0.329000000
H     1.949000000    -2.856000000    -1.265000000
H     1.156000000    -2.023000000    -0.280000000
O     5.040000000     2.402000000     2.293000000
H     5.346000000     3.232000000     2.658000000
H     5.824000000     1.852000000     2.259000000
O    -3.272000000     1.279000000    -4.676000000
H    -2.827000000     1.875000000    -4.072000000
H    -2.629000000     1.114000000    -5.366000000
O    -3.983000000    -0.488000000     5.750000000
H    -3.446000000     0.273000000     5.530000000
H    -3.466000000    -1.239000000     5.459000000
O    -2.322000000     1.787000000     5.622000000
H    -1.388000000     1.588000000     5.548000000
H    -2.557000000     2.152000000     4.769000000
O     2.213000000    -3.937000000    -2.837000000
H     2.330000000    -4.876000000    -2.692000000
H     1.310000000    -3.853000000    -3.146000000
O     1.010000000    -0.616000000    -6.217000000
H     0.934000000    -0.261000000    -5.332000000
H     0.249000000    -0.267000000    -6.682000000
O    -6.443000000    -0.226000000    -2.864000000
H    -6.408000000     0.596000000    -3.352000000
H    -5.575000000    -0.611000000    -2.980000000
O    -1.548000000     3.102000000    -0.572000000
H    -1.837000000     2.357000000    -0.046000000
H    -0.789000000     3.448000000    -0.102000000
O     2.071000000    -2.982000000     3.494000000
H     2.187000000    -3.836000000     3.910000000
H     1.433000000    -3.138000000     2.798000000
O     3.887000000     4.315000000    -5.001000000
H     4.431000000     3.813000000    -5.608000000
H     4.266000000     4.138000000    -4.139000000
O     1.377000000     4.014000000     0.174000000
H     2.083000000     3.371000000     0.109000000
H     1.624000000     4.566000000     0.916000000
O     1.569000000    -1.702000000     6.156000000
H     1.300000000    -2.571000000     5.856000000
H     2.301000000    -1.468000000     5.585000000
O     3.677000000    -0.974000000     4.091000000
H     3.014000000    -1.608000000     3.816000000
H     3.727000000    -0.350000000     3.367000000
