161
-3016.18017
C    -0.069000000    -1.495000000    -0.194000000
H    -0.163000000    -2.571000000    -0.318000000
C    -0.045000000    -0.835000000     1.061000000
H    -0.371000000    -1.323000000     1.976000000
C     0.027000000     0.590000000     1.085000000
C    -0.145000000     1.303000000     2.410000000
H     0.655000000     2.020000000     2.605000000
H    -1.091000000     1.839000000     2.512000000
H    -0.079000000     0.660000000     3.291000000
C     0.111000000     1.281000000    -0.082000000
H     0.342000000     2.336000000    -0.200000000
C     0.108000000     0.610000000    -1.320000000
H     0.264000000     1.245000000    -2.189000000
C    -0.011000000    -0.782000000    -1.408000000
C     0.120000000    -1.411000000    -2.737000000
O    -0.101000000    -0.849000000    -3.799000000
O     0.452000000    -2.619000000    -2.696000000
O    -2.752000000    -2.988000000     3.414000000
H    -2.572000000    -2.932000000     4.353000000
H    -2.808000000    -2.077000000     3.126000000
O     4.952000000    -2.850000000    -0.515000000
H     4.297000000    -2.176000000    -0.335000000
H     5.727000000    -2.363000000    -0.794000000
O    -3.635000000     1.573000000    -4.099000000
H    -2.758000000     1.770000000    -4.426000000
H    -4.046000000     2.429000000    -3.982000000
O    -0.755000000     4.698000000     4.869000000
H    -1.048000000     5.484000000     4.408000000
H     0.163000000     4.600000000     4.616000000
O     0.099000000    -0.808000000     7.620000000
H     0.557000000    -0.676000000     8.450000000
H    -0.406000000    -0.005000000     7.494000000
O    -4.720000000     0.708000000    -1.145000000
H    -4.108000000     0.757000000    -1.878000000
H    -5.582000000     0.642000000    -1.556000000
O     0.962000000     3.075000000    -4.145000000
H     1.211000000     3.999000000    -4.117000000
H     1.791000000     2.606000000    -4.237000000
O    -1.859000000    -2.537000000    -8.380000000
H    -2.490000000    -2.084000000    -7.820000000
H    -1.019000000    -2.425000000    -7.934000000
O     2.956000000    -0.953000000     3.719000000
H     3.891000000    -0.806000000     3.574000000
H     2.652000000    -0.155000000     4.151000000
O     2.222000000     3.951000000    -0.255000000
H     2.353000000     4.619000000    -0.928000000
H     1.477000000     4.269000000     0.255000000
O    -4.907000000    -4.339000000     2.019000000
H    -4.356000000    -3.647000000     2.385000000
H    -4.581000000    -4.457000000     1.126000000
O     2.016000000     4.008000000     4.505000000
H     2.463000000     4.665000000     3.972000000
H     2.233000000     4.242000000     5.407000000
O    -3.375000000    -0.562000000     2.209000000
H    -3.461000000    -1.052000000     1.391000000
H    -3.625000000     0.333000000     1.979000000
O     0.736000000     0.427000000    -7.587000000
H     0.060000000     1.103000000    -7.631000000
H     1.491000000     0.869000000    -7.197000000
O     3.016000000    -2.707000000    -3.434000000
H     2.114000000    -2.840000000    -3.144000000
H     3.519000000    -3.374000000    -2.967000000
O    -1.385000000     5.178000000    -3.063000000
H    -1.913000000     5.588000000    -2.378000000
H    -1.996000000     4.605000000    -3.526000000
O    -0.389000000    -1.852000000    -6.200000000
H    -0.258000000    -1.631000000    -5.278000000
H     0.020000000    -1.131000000    -6.679000000
O     1.149000000    -5.352000000     4.280000000
H     0.823000000    -4.816000000     3.558000000
H     1.328000000    -4.726000000     4.982000000
O     2.306000000    -0.071000000    -4.810000000
H     2.957000000    -0.555000000    -4.302000000
H     1.522000000    -0.076000000    -4.261000000
O    -2.006000000    -5.265000000     0.012000000
H    -2.209000000    -4.633000000    -0.678000000
H    -2.687000000    -5.933000000    -0.066000000
O    -4.472000000     1.847000000     1.425000000
H    -4.329000000     1.804000000     0.480000000
H    -5.180000000     2.482000000     1.532000000
O    -3.232000000    -1.022000000    -4.577000000
H    -2.279000000    -1.061000000    -4.655000000
H    -3.419000000    -0.106000000    -4.372000000
O    -0.179000000    -5.128000000    -3.046000000
H    -0.629000000    -5.381000000    -2.240000000
H     0.127000000    -4.237000000    -2.880000000
O    -4.634000000     5.566000000     2.108000000
H    -4.825000000     5.269000000     2.997000000
H    -3.720000000     5.321000000     1.964000000
O     1.432000000     5.689000000    -2.191000000
H     0.685000000     5.145000000    -2.440000000
H     1.100000000     6.586000000    -2.233000000
O     3.018000000    -2.726000000    -6.131000000
H     2.114000000    -2.415000000    -6.099000000
H     3.222000000    -2.964000000    -5.226000000
O     0.926000000    -7.416000000    -4.158000000
H     1.077000000    -7.945000000    -3.375000000
H     0.731000000    -6.541000000    -3.822000000
O    -2.080000000    -3.942000000    -5.183000000
H    -1.542000000    -3.196000000    -5.450000000
H    -1.526000000    -4.430000000    -4.574000000
O    -0.460000000     1.993000000     5.943000000
H    -0.679000000     2.850000000     5.577000000
H    -1.273000000     1.492000000     5.882000000
O     4.879000000    -0.635000000    -3.380000000
H     5.406000000    -1.150000000    -3.991000000
H     4.201000000    -1.240000000    -3.079000000
O    -2.155000000    -2.526000000     5.908000000
H    -1.275000000    -2.296000000     6.207000000
H    -2.448000000    -3.199000000     6.522000000
O     4.053000000     0.781000000    -6.708000000
H     3.405000000     0.546000000    -6.043000000
H     3.585000000     1.368000000    -7.302000000
O     3.369000000    -1.157000000     0.747000000
H     3.229000000    -0.588000000     1.504000000
H     2.487000000    -1.354000000     0.430000000
O    -2.281000000     4.380000000     1.803000000
H    -1.393000000     4.305000000     1.453000000
H    -2.596000000     3.478000000     1.852000000
O     3.304000000    -5.012000000    -1.186000000
H     2.701000000    -5.129000000    -0.452000000
H     3.928000000    -4.353000000    -0.881000000
O    -4.059000000     0.784000000    -7.065000000
H    -4.117000000     1.733000000    -6.953000000
H    -3.645000000     0.472000000    -6.261000000
O    -3.392000000     0.244000000     6.697000000
H    -2.912000000     0.209000000     7.525000000
H    -3.260000000    -0.620000000     6.308000000
O     0.317000000     4.915000000     1.454000000
H     1.128000000     5.151000000     1.904000000
H     0.019000000     5.732000000     1.053000000
O     4.609000000     3.846000000     1.824000000
H     4.239000000     3.045000000     1.452000000
H     3.873000000     4.458000000     1.856000000
O    -1.019000000     1.465000000    -4.958000000
H    -0.735000000     0.583000000    -4.716000000
H    -0.312000000     2.035000000    -4.657000000
O    -2.385000000    -3.265000000    -2.295000000
H    -3.138000000    -2.912000000    -2.769000000
H    -1.627000000    -2.849000000    -2.706000000
O     0.841000000    -3.092000000     6.294000000
H     1.760000000    -3.291000000     6.112000000
H     0.856000000    -2.208000000     6.660000000
O     3.790000000     1.775000000     0.405000000
H     4.226000000     1.412000000    -0.366000000
H     3.148000000     2.390000000     0.050000000
O     4.283000000     3.928000000    -3.064000000
H     4.681000000     4.349000000    -2.302000000
H     4.433000000     2.992000000    -2.927000000
O    -0.929000000    -4.791000000     2.374000000
H    -1.660000000    -4.214000000     2.597000000
H    -1.114000000    -5.075000000     1.478000000
O     2.771000000     5.802000000     2.238000000
H     3.094000000     6.396000000     2.915000000
H     2.403000000     6.380000000     1.569000000
O     2.490000000     1.466000000     5.081000000
H     2.367000000     2.254000000     4.552000000
H     1.713000000     1.429000000     5.639000000
O     5.463000000     0.018000000     2.460000000
H     4.951000000     0.799000000     2.250000000
H     5.584000000    -0.422000000     1.619000000
