161
-3033.49212
C     1.219000000    -0.826000000    -0.084000000
H     2.149000000    -1.388000000    -0.112000000
C     0.775000000    -0.178000000     1.057000000
H     1.436000000    -0.178000000     1.920000000
C    -0.418000000     0.505000000     1.027000000
C    -0.791000000     1.348000000     2.220000000
H    -0.368000000     0.807000000     3.069000000
H    -0.353000000     2.348000000     2.191000000
H    -1.866000000     1.448000000     2.385000000
C    -1.101000000     0.743000000    -0.138000000
H    -1.977000000     1.374000000    -0.268000000
C    -0.656000000     0.067000000    -1.294000000
H    -1.201000000     0.169000000    -2.229000000
C     0.409000000    -0.799000000    -1.242000000
C     0.859000000    -1.542000000    -2.522000000
O     0.201000000    -1.473000000    -3.540000000
O     1.690000000    -2.431000000    -2.437000000
O    -2.972000000    -3.431000000    -6.043000000
H    -2.541000000    -3.264000000    -5.205000000
H    -2.340000000    -3.954000000    -6.537000000
O     6.251000000     0.208000000    -0.720000000
H     5.683000000     0.257000000    -1.488000000
H     7.133000000     0.346000000    -1.065000000
O    -3.401000000    -1.850000000     2.178000000
H    -2.549000000    -1.414000000     2.190000000
H    -3.921000000    -1.341000000     1.556000000
O     5.027000000    -1.957000000     0.939000000
H     4.898000000    -1.023000000     0.776000000
H     5.976000000    -2.077000000     0.902000000
O    -5.151000000     1.195000000    -5.375000000
H    -4.460000000     1.083000000    -4.722000000
H    -5.341000000     2.133000000    -5.364000000
O    -2.046000000     6.085000000     2.204000000
H    -1.651000000     6.909000000     1.920000000
H    -1.484000000     5.408000000     1.828000000
O    -2.204000000     2.884000000     6.971000000
H    -2.025000000     3.405000000     6.188000000
H    -2.558000000     2.061000000     6.635000000
O     0.268000000     0.925000000     6.143000000
H     0.326000000     0.496000000     6.997000000
H    -0.127000000     1.777000000     6.330000000
O    -5.089000000     2.934000000    -0.483000000
H    -5.276000000     2.832000000    -1.417000000
H    -4.895000000     3.866000000    -0.379000000
O     1.402000000     2.411000000    -4.517000000
H     1.330000000     2.570000000    -3.576000000
H     0.785000000     3.028000000    -4.911000000
O    -5.956000000    -1.054000000    -0.053000000
H    -6.912000000    -1.023000000    -0.090000000
H    -5.686000000    -1.213000000    -0.957000000
O     2.789000000     1.073000000     5.409000000
H     3.310000000     1.215000000     6.199000000
H     1.882000000     1.147000000     5.703000000
O     0.060000000     3.857000000    -2.240000000
H    -0.584000000     3.177000000    -2.042000000
H    -0.454000000     4.662000000    -2.302000000
O     1.965000000     5.555000000     3.294000000
H     2.892000000     5.792000000     3.269000000
H     1.519000000     6.359000000     3.560000000
O     4.783000000    -1.944000000     4.073000000
H     4.492000000    -1.035000000     4.144000000
H     4.836000000    -2.105000000     3.131000000
O     1.100000000    -3.030000000    -6.844000000
H     0.536000000    -3.196000000    -6.089000000
H     1.986000000    -3.193000000    -6.521000000
O     4.273000000    -2.614000000    -2.262000000
H     3.317000000    -2.639000000    -2.221000000
H     4.554000000    -2.710000000    -1.352000000
O    -1.508000000     0.084000000    -4.982000000
H    -1.159000000    -0.617000000    -4.432000000
H    -0.842000000     0.214000000    -5.657000000
O    -5.512000000     1.126000000     4.320000000
H    -4.888000000     1.593000000     4.876000000
H    -5.268000000     1.372000000     3.428000000
O     1.590000000    -3.669000000     3.330000000
H     1.687000000    -3.000000000     4.007000000
H     2.182000000    -4.371000000     3.600000000
O     1.899000000    -0.125000000    -5.336000000
H     1.917000000     0.762000000    -4.974000000
H     1.113000000    -0.520000000    -4.959000000
O    -0.912000000    -5.327000000    -0.095000000
H    -1.462000000    -5.248000000     0.685000000
H    -1.487000000    -5.081000000    -0.819000000
O    -3.853000000     3.330000000     3.049000000
H    -3.877000000     2.720000000     2.312000000
H    -4.766000000     3.591000000     3.173000000
O    -5.112000000    -1.558000000    -2.708000000
H    -4.235000000    -1.773000000    -3.025000000
H    -5.672000000    -1.633000000    -3.480000000
O     1.538000000    -4.294000000    -0.479000000
H     0.705000000    -4.697000000    -0.234000000
H     1.292000000    -3.558000000    -1.040000000
O     4.725000000    -4.482000000    -4.114000000
H     3.806000000    -4.618000000    -4.345000000
H     4.715000000    -3.731000000    -3.521000000
O     0.114000000    -4.038000000    -4.353000000
H     0.027000000    -3.151000000    -4.004000000
H     0.793000000    -4.442000000    -3.814000000
O     2.370000000    -6.163000000    -2.449000000
H     3.323000000    -6.125000000    -2.373000000
H     2.049000000    -5.677000000    -1.689000000
O    -2.339000000    -2.593000000    -3.433000000
H    -2.130000000    -3.460000000    -3.085000000
H    -1.491000000    -2.158000000    -3.517000000
O    -0.958000000    -3.272000000     4.171000000
H    -0.303000000    -3.676000000     4.740000000
H    -0.511000000    -3.159000000     3.332000000
O     1.466000000     3.837000000     5.468000000
H     2.229000000     3.784000000     4.892000000
H     0.896000000     4.484000000     5.052000000
O     5.206000000    -0.087000000    -3.176000000
H     5.422000000    -0.097000000    -4.109000000
H     5.100000000    -1.010000000    -2.945000000
O    -3.201000000    -2.136000000     5.764000000
H    -2.724000000    -2.357000000     4.964000000
H    -2.632000000    -2.434000000     6.473000000
O     6.318000000    -4.532000000    -0.576000000
H     6.934000000    -4.521000000     0.156000000
H     5.458000000    -4.433000000    -0.168000000
O     3.836000000    -1.262000000    -6.904000000
H     3.117000000    -1.010000000    -6.325000000
H     3.790000000    -2.217000000    -6.943000000
O     3.753000000     0.398000000     2.753000000
H     3.427000000     0.974000000     3.445000000
H     3.212000000     0.610000000     1.991000000
O     5.577000000     2.436000000     2.753000000
H     5.661000000     2.803000000     1.873000000
H     5.132000000     1.598000000     2.621000000
O    -2.572000000     4.748000000     4.784000000
H    -2.391000000     5.390000000     4.097000000
H    -2.984000000     4.016000000     4.325000000
O     3.788000000    -4.369000000     0.775000000
H     2.886000000    -4.245000000     0.477000000
H     4.072000000    -3.496000000     1.048000000
O     1.221000000    -6.097000000     2.003000000
H     1.351000000    -5.191000000     2.285000000
H     1.775000000    -6.188000000     1.228000000
O    -3.421000000     0.464000000     6.416000000
H    -3.169000000     0.113000000     7.270000000
H    -3.969000000    -0.218000000     6.029000000
O    -3.501000000     5.490000000    -0.331000000
H    -3.152000000     5.437000000     0.558000000
H    -2.756000000     5.766000000    -0.865000000
O    -2.228000000     2.733000000    -3.826000000
H    -1.769000000     1.967000000    -4.172000000
H    -1.681000000     3.476000000    -4.082000000
O    -4.824000000     1.110000000     1.518000000
H    -5.287000000     0.332000000     1.209000000
H    -4.918000000     1.744000000     0.808000000
O     1.491000000    -1.231000000     4.720000000
H     2.252000000    -0.678000000     4.540000000
H     0.769000000    -0.614000000     4.837000000
O     2.578000000     2.169000000     1.196000000
H     2.843000000     3.083000000     1.092000000
H     1.648000000     2.162000000     0.966000000
O     3.068000000     4.807000000     0.815000000
H     2.480000000     5.109000000     0.123000000
H     2.721000000     5.205000000     1.614000000
O     3.778000000     2.096000000    -2.111000000
H     2.906000000     1.742000000    -2.288000000
H     4.379000000     1.421000000    -2.427000000
