161
-3029.31944
C     0.811000000    -1.203000000    -0.028000000
H     1.529000000    -2.014000000     0.064000000
C     1.083000000    -0.091000000     0.742000000
H     1.919000000    -0.077000000     1.436000000
C     0.271000000     0.961000000     0.689000000
C     0.655000000     2.278000000     1.418000000
H    -0.116000000     3.047000000     1.340000000
H     0.896000000     2.087000000     2.466000000
H     1.533000000     2.673000000     0.903000000
C    -0.866000000     0.931000000    -0.127000000
H    -1.504000000     1.806000000    -0.221000000
C    -1.199000000    -0.198000000    -0.855000000
H    -2.145000000    -0.192000000    -1.389000000
C    -0.393000000    -1.329000000    -0.782000000
C    -0.717000000    -2.567000000    -1.650000000
O    -1.284000000    -2.364000000    -2.670000000
O    -0.467000000    -3.747000000    -1.328000000
O     3.414000000     3.330000000     3.221000000
H     4.101000000     3.881000000     2.848000000
H     2.757000000     3.949000000     3.541000000
O    -5.114000000    -4.321000000    -0.588000000
H    -4.754000000    -4.452000000    -1.465000000
H    -5.351000000    -5.201000000    -0.293000000
O    -2.591000000     0.979000000     5.366000000
H    -3.534000000     1.019000000     5.527000000
H    -2.383000000     1.816000000     4.951000000
O    -1.739000000    -6.637000000    -2.387000000
H    -0.954000000    -7.184000000    -2.364000000
H    -1.702000000    -6.201000000    -3.238000000
O     1.804000000     2.568000000    -3.375000000
H     2.541000000     3.043000000    -3.758000000
H     2.178000000     1.735000000    -3.090000000
O     4.851000000    -0.204000000     0.316000000
H     5.035000000    -0.243000000     1.255000000
H     5.027000000    -1.091000000     0.000000000
O    -5.272000000     0.691000000     3.582000000
H    -4.841000000     0.610000000     2.731000000
H    -5.374000000     1.634000000     3.709000000
O    -4.740000000    -1.635000000    -3.966000000
H    -4.080000000    -1.579000000    -4.657000000
H    -4.900000000    -2.573000000    -3.863000000
O     4.789000000     3.756000000    -2.158000000
H     5.591000000     3.740000000    -2.679000000
H     4.855000000     2.986000000    -1.593000000
O    -2.337000000     4.302000000    -3.491000000
H    -2.853000000     4.502000000    -4.272000000
H    -1.739000000     3.609000000    -3.771000000
O    -3.786000000    -0.726000000     1.424000000
H    -2.848000000    -0.839000000     1.270000000
H    -4.182000000    -0.807000000     0.556000000
O     4.190000000    -4.250000000    -1.020000000
H     4.089000000    -5.172000000    -0.786000000
H     3.771000000    -3.773000000    -0.304000000
O    -4.851000000     2.930000000    -3.404000000
H    -5.286000000     2.115000000    -3.154000000
H    -3.945000000     2.674000000    -3.580000000
O     2.567000000    -0.176000000    -2.009000000
H     1.730000000    -0.245000000    -1.550000000
H     3.225000000    -0.344000000    -1.334000000
O     0.484000000    -2.160000000     4.780000000
H     0.683000000    -1.445000000     5.384000000
H    -0.324000000    -1.889000000     4.345000000
O    -0.094000000    -4.595000000    -4.275000000
H     0.767000000    -4.356000000    -4.620000000
H    -0.189000000    -4.067000000    -3.482000000
O    -3.109000000    -4.462000000    -5.701000000
H    -2.389000000    -4.508000000    -5.072000000
H    -3.128000000    -5.329000000    -6.107000000
O     1.259000000    -5.781000000    -1.019000000
H     0.716000000    -6.472000000    -1.399000000
H     0.753000000    -4.979000000    -1.150000000
O    -5.723000000    -4.921000000    -3.891000000
H    -5.672000000    -5.397000000    -4.720000000
H    -4.810000000    -4.784000000    -3.637000000
O    -0.806000000     2.396000000    -4.365000000
H    -1.085000000     1.498000000    -4.185000000
H     0.150000000     2.355000000    -4.366000000
O     5.680000000     4.335000000     1.810000000
H     6.565000000     4.041000000     1.592000000
H     5.545000000     5.111000000     1.266000000
O    -2.406000000     3.039000000     3.313000000
H    -2.138000000     3.892000000     2.970000000
H    -3.335000000     2.974000000     3.091000000
O     3.343000000    -3.116000000     1.246000000
H     3.441000000    -2.609000000     2.053000000
H     3.028000000    -3.972000000     1.538000000
O     4.268000000    -1.179000000    -4.102000000
H     4.575000000    -0.726000000    -4.888000000
H     3.591000000    -0.605000000    -3.744000000
O    -3.071000000    -1.554000000    -6.201000000
H    -3.104000000    -2.511000000    -6.185000000
H    -3.221000000    -1.324000000    -7.117000000
O     0.796000000    -0.145000000    -6.319000000
H     0.176000000    -0.328000000    -5.613000000
H     0.262000000    -0.151000000    -7.114000000
O    -4.346000000     5.172000000     1.281000000
H    -4.169000000     5.602000000     0.444000000
H    -3.480000000     4.965000000     1.632000000
O    -1.996000000    -1.312000000     3.954000000
H    -2.248000000    -0.394000000     4.050000000
H    -2.736000000    -1.718000000     3.502000000
O     1.800000000    -2.954000000    -5.889000000
H     2.089000000    -2.046000000    -5.802000000
H     1.160000000    -2.934000000    -6.601000000
O     1.145000000     4.798000000     5.049000000
H     1.630000000     5.490000000     5.498000000
H     0.730000000     5.240000000     4.308000000
O    -0.297000000    -0.092000000     6.494000000
H    -1.017000000    -0.049000000     5.865000000
H     0.117000000     0.770000000     6.443000000
O     2.683000000     0.573000000     4.097000000
H     1.840000000     0.136000000     4.221000000
H     2.461000000     1.405000000     3.680000000
O    -1.491000000     4.122000000     6.007000000
H    -0.932000000     3.416000000     5.684000000
H    -1.000000000     4.503000000     6.734000000
O    -1.658000000     5.265000000     2.133000000
H    -1.128000000     5.468000000     1.363000000
H    -1.168000000     5.636000000     2.867000000
O     2.804000000    -6.795000000     0.841000000
H     3.359000000    -7.403000000     0.353000000
H     2.267000000    -6.371000000     0.172000000
O     5.990000000    -2.238000000    -1.014000000
H     6.778000000    -2.719000000    -1.267000000
H     5.280000000    -2.872000000    -1.113000000
O    -3.201000000    -4.294000000    -2.427000000
H    -2.639000000    -3.529000000    -2.545000000
H    -2.593000000    -5.020000000    -2.291000000
O     4.009000000    -1.552000000     3.272000000
H     3.616000000    -0.715000000     3.521000000
H     3.766000000    -2.150000000     3.979000000
O     0.934000000     2.355000000     6.133000000
H     1.231000000     2.377000000     7.043000000
H     1.207000000     3.198000000     5.772000000
O     0.132000000     5.937000000    -0.487000000
H     0.769000000     5.232000000    -0.599000000
H    -0.144000000     6.155000000    -1.377000000
O    -2.707000000    -4.433000000     2.960000000
H    -2.870000000    -4.190000000     2.049000000
H    -1.771000000    -4.631000000     2.992000000
O     3.003000000    -4.555000000    -3.886000000
H     2.879000000    -4.092000000    -4.715000000
H     3.134000000    -3.860000000    -3.241000000
O    -1.244000000    -0.477000000    -4.562000000
H    -2.019000000    -0.798000000    -5.024000000
H    -1.108000000    -1.107000000    -3.855000000
O    -6.014000000     0.581000000    -3.144000000
H    -6.576000000     0.309000000    -2.418000000
H    -5.554000000    -0.218000000    -3.403000000
O    -3.567000000     6.438000000    -1.616000000
H    -4.150000000     6.019000000    -2.248000000
H    -2.802000000     5.864000000    -1.578000000
O    -1.873000000    -5.349000000     0.287000000
H    -1.458000000    -4.527000000     0.027000000
H    -2.004000000    -5.822000000    -0.535000000
O    -5.063000000    -1.536000000    -0.991000000
H    -5.177000000    -2.446000000    -0.719000000
H    -5.465000000    -1.493000000    -1.858000000
O     1.877000000    -4.456000000     3.789000000
H     1.461000000    -3.607000000     3.940000000
H     2.808000000    -4.299000000     3.947000000
