161
-3050.98391
C     0.602000000    -1.350000000     0.093000000
H     1.080000000    -2.322000000     0.183000000
C     1.284000000    -0.156000000     0.421000000
H     2.268000000    -0.116000000     0.882000000
C     0.568000000     1.041000000     0.420000000
C     1.199000000     2.337000000     0.812000000
H     0.790000000     2.738000000     1.741000000
H     2.289000000     2.277000000     0.786000000
H     0.950000000     3.060000000     0.032000000
C    -0.738000000     1.006000000    -0.142000000
H    -1.204000000     1.939000000    -0.449000000
C    -1.343000000    -0.161000000    -0.517000000
H    -2.268000000    -0.171000000    -1.086000000
C    -0.683000000    -1.366000000    -0.333000000
C    -1.384000000    -2.543000000    -0.861000000
O    -2.409000000    -2.567000000    -1.522000000
O    -1.005000000    -3.643000000    -0.454000000
O     4.155000000     4.850000000     1.665000000
H     3.639000000     5.627000000     1.880000000
H     4.345000000     4.939000000     0.731000000
O    -3.243000000     1.394000000     4.065000000
H    -3.143000000     0.561000000     3.604000000
H    -2.840000000     2.039000000     3.484000000
O    -4.298000000    -2.316000000     0.380000000
H    -4.611000000    -3.111000000     0.810000000
H    -3.619000000    -2.620000000    -0.223000000
O     0.864000000    -2.384000000     4.008000000
H     0.281000000    -2.288000000     3.255000000
H     0.381000000    -2.943000000     4.616000000
O     0.408000000     6.530000000     1.400000000
H     0.412000000     6.988000000     0.559000000
H     1.276000000     6.697000000     1.768000000
O    -1.068000000     1.404000000    -4.242000000
H    -0.193000000     1.333000000    -3.859000000
H    -1.356000000     0.498000000    -4.352000000
O     4.652000000    -3.554000000    -3.091000000
H     5.492000000    -3.414000000    -2.656000000
H     4.261000000    -2.682000000    -3.144000000
O    -2.791000000     5.963000000    -3.401000000
H    -3.539000000     5.405000000    -3.612000000
H    -2.349000000     5.510000000    -2.682000000
O     5.698000000     2.474000000    -1.196000000
H     5.258000000     2.039000000    -0.466000000
H     6.164000000     1.771000000    -1.649000000
O    -3.227000000    -1.133000000     2.506000000
H    -2.618000000    -1.870000000     2.552000000
H    -3.629000000    -1.207000000     1.640000000
O    -6.404000000    -0.609000000    -0.728000000
H    -6.879000000    -1.420000000    -0.547000000
H    -5.498000000    -0.804000000    -0.487000000
O     4.687000000    -1.644000000    -0.288000000
H     4.322000000    -2.337000000     0.262000000
H     5.481000000    -2.028000000    -0.660000000
O    -1.287000000    -3.104000000     2.110000000
H    -1.797000000    -3.817000000     2.495000000
H    -1.274000000    -3.299000000     1.173000000
O    -0.896000000    -4.117000000    -6.161000000
H    -1.101000000    -3.189000000    -6.275000000
H    -1.396000000    -4.381000000    -5.389000000
O     1.184000000    -5.005000000    -1.024000000
H     1.758000000    -4.731000000    -0.309000000
H     0.342000000    -4.595000000    -0.826000000
O    -3.714000000     2.767000000    -3.255000000
H    -2.813000000     2.478000000    -3.401000000
H    -4.233000000     2.253000000    -3.874000000
O     6.944000000     4.378000000     2.276000000
H     6.016000000     4.335000000     2.043000000
H     7.304000000     5.052000000     1.699000000
O    -1.953000000     3.397000000     2.927000000
H    -2.132000000     3.867000000     2.113000000
H    -2.170000000     4.023000000     3.618000000
O     4.661000000     0.836000000     0.762000000
H     4.161000000     0.552000000     1.527000000
H     4.929000000     0.022000000     0.335000000
O     1.380000000     7.536000000    -1.038000000
H     1.317000000     8.480000000    -0.894000000
H     1.986000000     7.446000000    -1.774000000
O     1.621000000     0.663000000    -3.132000000
H     1.610000000     0.155000000    -2.320000000
H     2.143000000     0.135000000    -3.737000000
O     0.497000000     4.479000000     4.261000000
H     0.675000000     5.404000000     4.095000000
H     0.032000000     4.181000000     3.479000000
O    -3.938000000    -2.775000000    -5.631000000
H    -4.074000000    -3.055000000    -6.536000000
H    -4.256000000    -3.508000000    -5.103000000
O    -0.700000000     4.569000000    -1.956000000
H    -0.635000000     3.829000000    -2.559000000
H     0.208000000     4.835000000    -1.805000000
O    -3.478000000    -5.117000000     2.148000000
H    -4.381000000    -5.416000000     2.042000000
H    -3.049000000    -5.356000000     1.327000000
O    -0.544000000    -6.951000000    -2.069000000
H     0.266000000    -6.635000000    -1.669000000
H    -0.285000000    -7.740000000    -2.545000000
O     2.659000000    -7.020000000    -2.141000000
H     2.401000000    -6.962000000    -3.061000000
H     2.197000000    -6.296000000    -1.717000000
O     2.408000000     3.510000000     5.847000000
H     1.567000000     3.890000000     5.592000000
H     2.778000000     4.139000000     6.465000000
O    -2.931000000    -7.349000000    -4.196000000
H    -3.500000000    -7.181000000    -4.947000000
H    -2.531000000    -6.500000000    -4.004000000
O     4.246000000     2.457000000     3.557000000
H     4.126000000     3.134000000     2.891000000
H     3.538000000     2.609000000     4.183000000
O    -5.153000000     4.761000000    -0.225000000
H    -4.660000000     3.947000000    -0.125000000
H    -4.898000000     5.290000000     0.531000000
O    -0.734000000     2.027000000     5.482000000
H    -1.433000000     2.096000000     4.831000000
H    -0.178000000     2.789000000     5.316000000
O    -1.833000000     4.832000000     0.696000000
H    -1.037000000     5.330000000     0.883000000
H    -1.712000000     4.515000000    -0.199000000
O     4.040000000    -4.366000000     0.425000000
H     4.440000000    -4.887000000    -0.271000000
H     3.596000000    -5.008000000     0.979000000
O     5.253000000    -1.188000000     4.975000000
H     4.380000000    -1.088000000     4.593000000
H     5.846000000    -1.166000000     4.224000000
O    -5.050000000    -4.367000000    -3.842000000
H    -4.639000000    -4.656000000    -3.028000000
H    -5.489000000    -5.148000000    -4.179000000
O    -5.156000000     1.943000000    -0.906000000
H    -5.603000000     1.229000000    -1.360000000
H    -4.621000000     2.360000000    -1.581000000
O     3.062000000    -0.900000000     3.421000000
H     2.618000000    -0.059000000     3.318000000
H     2.353000000    -1.536000000     3.518000000
O     7.451000000     0.882000000     1.587000000
H     6.510000000     1.049000000     1.644000000
H     7.809000000     1.668000000     1.174000000
O     0.878000000    -0.047000000     5.761000000
H     0.267000000     0.633000000     5.479000000
H     0.767000000    -0.750000000     5.120000000
O     1.372000000     3.281000000    -3.695000000
H     2.308000000     3.424000000    -3.831000000
H     1.278000000     2.330000000    -3.652000000
O    -2.484000000    -5.823000000    -0.375000000
H    -1.943000000    -6.437000000    -0.872000000
H    -2.021000000    -4.989000000    -0.439000000
O     0.567000000    -2.695000000    -3.090000000
H     1.047000000    -3.279000000    -2.503000000
H    -0.162000000    -3.224000000    -3.413000000
O    -1.863000000    -1.450000000    -4.168000000
H    -2.730000000    -1.764000000    -4.423000000
H    -1.778000000    -1.704000000    -3.249000000
O     1.285000000    -4.595000000     1.937000000
H     1.744000000    -4.862000000     2.733000000
H     0.874000000    -3.761000000     2.166000000
O    -5.896000000     0.824000000    -3.675000000
H    -6.756000000     0.689000000    -3.278000000
H    -5.408000000     0.027000000    -3.468000000
O    -1.435000000    -4.542000000    -3.324000000
H    -1.102000000    -5.370000000    -2.979000000
H    -1.775000000    -4.082000000    -2.556000000
O    -4.584000000    -1.712000000    -2.816000000
H    -4.823000000    -2.539000000    -3.234000000
H    -3.818000000    -1.925000000    -2.283000000
