161
-3062.49509
C    -1.431000000     0.104000000     0.163000000
H    -2.450000000     0.327000000     0.469000000
C    -0.496000000     0.929000000     0.795000000
H    -0.873000000     1.747000000     1.403000000
C     0.883000000     0.712000000     0.528000000
C     1.867000000     1.546000000     1.254000000
H     2.870000000     1.597000000     0.825000000
H     1.433000000     2.547000000     1.307000000
H     1.946000000     1.153000000     2.270000000
C     1.224000000    -0.230000000    -0.486000000
H     2.274000000    -0.398000000    -0.715000000
C     0.284000000    -1.023000000    -1.106000000
H     0.497000000    -1.849000000    -1.780000000
C    -1.001000000    -0.931000000    -0.704000000
C    -2.040000000    -1.860000000    -1.229000000
O    -1.781000000    -2.735000000    -2.059000000
O    -3.204000000    -1.635000000    -0.932000000
O     2.725000000     6.398000000    -0.074000000
H     2.069000000     6.028000000    -0.666000000
H     3.388000000     5.713000000     0.008000000
O     4.275000000     3.819000000     3.960000000
H     3.383000000     4.046000000     4.223000000
H     4.823000000     4.490000000     4.366000000
O     3.569000000    -4.050000000    -1.573000000
H     3.011000000    -3.898000000    -2.336000000
H     4.151000000    -3.291000000    -1.546000000
O    -0.293000000    -5.772000000    -5.768000000
H    -0.604000000    -6.630000000    -5.479000000
H    -0.961000000    -5.159000000    -5.460000000
O    -7.716000000     0.156000000     1.012000000
H    -7.569000000     1.035000000     1.361000000
H    -6.985000000     0.011000000     0.412000000
O     0.495000000     1.015000000    -4.126000000
H     0.628000000     1.814000000    -4.636000000
H     0.692000000     1.270000000    -3.225000000
O    -4.091000000    -6.820000000    -2.357000000
H    -4.878000000    -6.849000000    -1.812000000
H    -3.750000000    -5.934000000    -2.238000000
O    -3.797000000    -2.106000000     1.818000000
H    -3.604000000    -1.902000000     0.902000000
H    -3.024000000    -1.808000000     2.298000000
O     3.221000000     1.577000000     5.779000000
H     2.686000000     1.013000000     6.338000000
H     2.590000000     2.014000000     5.207000000
O     2.112000000    -2.213000000     2.677000000
H     2.157000000    -2.872000000     3.369000000
H     1.175000000    -2.070000000     2.543000000
O     1.534000000     3.632000000     4.845000000
H     1.291000000     3.897000000     3.958000000
H     0.787000000     3.891000000     5.385000000
O     5.167000000     1.035000000     2.641000000
H     4.788000000     1.914000000     2.650000000
H     5.500000000     0.909000000     3.530000000
O     3.070000000     2.401000000    -1.970000000
H     3.278000000     1.538000000    -2.329000000
H     3.831000000     2.940000000    -2.184000000
O    -0.691000000    -2.940000000    -4.264000000
H     0.224000000    -3.121000000    -4.050000000
H    -1.134000000    -2.909000000    -3.417000000
O    -1.333000000    -7.355000000    -2.008000000
H    -2.284000000    -7.398000000    -2.105000000
H    -1.141000000    -6.419000000    -1.946000000
O     4.103000000     0.200000000    -3.150000000
H     3.534000000    -0.428000000    -3.596000000
H     4.641000000    -0.336000000    -2.568000000
O    -2.961000000    -5.425000000    -5.313000000
H    -3.093000000    -4.919000000    -4.512000000
H    -3.729000000    -5.994000000    -5.366000000
O     6.120000000     2.985000000    -0.794000000
H     6.808000000     3.649000000    -0.839000000
H     5.884000000     2.823000000    -1.708000000
O    -3.190000000     4.636000000     5.047000000
H    -3.800000000     4.502000000     5.772000000
H    -3.155000000     3.789000000     4.604000000
O    -7.509000000    -2.483000000    -1.708000000
H    -7.926000000    -2.369000000    -2.562000000
H    -7.174000000    -1.614000000    -1.487000000
O    -4.132000000    -3.892000000    -2.925000000
H    -3.339000000    -3.532000000    -2.527000000
H    -4.798000000    -3.221000000    -2.780000000
O     2.126000000     6.512000000     2.694000000
H     2.067000000     6.629000000     1.746000000
H     2.959000000     6.920000000     2.933000000
O    -4.392000000     1.531000000    -4.018000000
H    -3.971000000     0.703000000    -4.247000000
H    -5.262000000     1.475000000    -4.414000000
O    -3.914000000     4.474000000    -1.162000000
H    -4.246000000     5.202000000    -0.638000000
H    -3.181000000     4.127000000    -0.654000000
O     1.546000000     4.770000000    -3.097000000
H     2.314000000     4.242000000    -3.317000000
H     1.194000000     4.363000000    -2.305000000
O     4.469000000    -1.600000000     1.392000000
H     4.433000000    -0.734000000     1.798000000
H     3.726000000    -2.072000000     1.769000000
O    -0.668000000    -0.524000000     3.496000000
H    -0.962000000    -0.134000000     4.320000000
H    -0.817000000     0.159000000     2.842000000
O     6.780000000     0.621000000     0.535000000
H     6.796000000     1.429000000     0.023000000
H     6.236000000     0.829000000     1.294000000
O     4.076000000     3.981000000     0.702000000
H     3.449000000     3.360000000     1.072000000
H     4.741000000     3.432000000     0.287000000
O     5.230000000    -1.694000000    -1.527000000
H     6.183000000    -1.614000000    -1.559000000
H     5.013000000    -1.600000000    -0.599000000
O    -0.561000000    -2.283000000    -6.845000000
H    -1.321000000    -2.773000000    -7.158000000
H    -0.602000000    -2.362000000    -5.891000000
O    -1.000000000    -4.886000000    -0.787000000
H    -0.380000000    -4.405000000    -0.238000000
H    -1.272000000    -4.252000000    -1.451000000
O    -5.720000000     0.232000000     3.378000000
H    -6.377000000     0.095000000     2.695000000
H    -5.181000000    -0.559000000     3.354000000
O     2.205000000    -0.916000000    -4.747000000
H     1.478000000    -0.301000000    -4.649000000
H     2.582000000    -0.707000000    -5.601000000
O    -3.032000000    -0.615000000    -3.767000000
H    -2.447000000    -1.363000000    -3.886000000
H    -3.160000000    -0.559000000    -2.820000000
O    -2.384000000     3.946000000     1.188000000
H    -2.502000000     3.097000000     1.616000000
H    -3.136000000     4.464000000     1.474000000
O     1.301000000    -3.776000000     0.213000000
H     1.919000000    -4.212000000    -0.373000000
H     1.844000000    -3.432000000     0.922000000
O     6.052000000     5.434000000     2.077000000
H     5.160000000     5.129000000     2.243000000
H     6.014000000     5.821000000     1.203000000
O     0.010000000     6.041000000    -1.009000000
H    -0.144000000     5.099000000    -0.940000000
H    -0.440000000     6.299000000    -1.813000000
O     2.062000000    -3.291000000    -3.813000000
H     2.219000000    -2.375000000    -4.043000000
H     2.146000000    -3.763000000    -4.641000000
O     0.260000000     4.467000000     2.492000000
H    -0.565000000     4.460000000     2.007000000
H     0.558000000     5.375000000     2.445000000
O    -5.504000000    -0.380000000    -0.540000000
H    -5.246000000     0.387000000    -1.050000000
H    -4.897000000    -1.067000000    -0.817000000
O    -5.187000000     2.190000000    -1.512000000
H    -4.651000000     2.964000000    -1.340000000
H    -5.142000000     2.074000000    -2.462000000
O     5.710000000     1.123000000     5.516000000
H     5.912000000     0.320000000     5.997000000
H     4.794000000     1.304000000     5.727000000
O     0.567000000     3.447000000    -0.961000000
H     1.069000000     2.652000000    -1.142000000
H     0.133000000     3.271000000    -0.127000000
O     0.940000000    -1.314000000     5.575000000
H     0.444000000    -1.117000000     4.780000000
H     1.702000000    -1.804000000     5.266000000
O    -3.311000000     2.017000000     3.450000000
H    -4.106000000     1.580000000     3.145000000
H    -3.028000000     1.500000000     4.204000000
O    -5.018000000    -4.572000000     1.459000000
H    -4.554000000    -3.737000000     1.508000000
H    -5.833000000    -4.368000000     0.999000000
