161
-3066.95203
C    -1.246000000     0.438000000    -0.600000000
H    -2.138000000     0.860000000    -1.057000000
C    -0.304000000     1.215000000     0.045000000
H    -0.610000000     2.257000000     0.108000000
C     0.815000000     0.662000000     0.667000000
C     1.907000000     1.528000000     1.323000000
H     2.405000000     2.174000000     0.597000000
H     1.495000000     2.250000000     2.031000000
H     2.661000000     1.008000000     1.918000000
C     0.990000000    -0.672000000     0.554000000
H     1.883000000    -1.126000000     0.977000000
C     0.029000000    -1.484000000    -0.114000000
H     0.183000000    -2.558000000    -0.174000000
C    -1.048000000    -0.909000000    -0.813000000
C    -2.113000000    -1.705000000    -1.561000000
O    -1.781000000    -2.818000000    -1.946000000
O    -3.136000000    -1.120000000    -1.953000000
O    -0.841000000     3.725000000     5.015000000
H    -0.991000000     2.918000000     4.523000000
H    -0.016000000     4.066000000     4.670000000
O     0.677000000     0.678000000     6.893000000
H     1.118000000     1.514000000     7.043000000
H     0.523000000     0.654000000     5.949000000
O     1.868000000    -0.279000000    -3.818000000
H     2.093000000    -0.318000000    -4.748000000
H     1.258000000    -1.004000000    -3.689000000
O     0.983000000     5.439000000    -1.295000000
H     1.058000000     5.951000000    -2.100000000
H     0.273000000     4.821000000    -1.469000000
O     3.667000000     3.034000000    -1.568000000
H     4.257000000     2.305000000    -1.756000000
H     2.796000000     2.699000000    -1.781000000
O    -3.968000000    -1.598000000     0.568000000
H    -4.817000000    -1.219000000     0.797000000
H    -3.769000000    -1.236000000    -0.295000000
O    -7.240000000    -0.442000000    -2.930000000
H    -8.055000000     0.038000000    -2.781000000
H    -7.472000000    -1.359000000    -2.785000000
O     1.561000000    -0.448000000     4.107000000
H     2.007000000     0.380000000     4.280000000
H     2.219000000    -0.988000000     3.669000000
O     2.626000000     2.072000000     4.727000000
H     2.137000000     2.870000000     4.528000000
H     2.969000000     2.214000000     5.609000000
O     5.897000000     5.759000000    -1.532000000
H     5.075000000     5.666000000    -1.050000000
H     6.285000000     4.884000000    -1.515000000
O    -0.489000000    -5.237000000    -1.189000000
H    -0.906000000    -5.944000000    -0.697000000
H    -1.183000000    -4.590000000    -1.314000000
O    -6.532000000    -3.933000000    -0.801000000
H    -7.169000000    -4.229000000    -0.151000000
H    -6.372000000    -3.016000000    -0.580000000
O    -3.803000000    -3.324000000    -6.772000000
H    -4.206000000    -2.707000000    -6.160000000
H    -3.532000000    -2.783000000    -7.513000000
O    -0.846000000    -4.283000000    -5.414000000
H    -1.109000000    -5.010000000    -4.851000000
H    -0.316000000    -4.691000000    -6.099000000
O    -2.917000000    -5.148000000    -3.437000000
H    -2.708000000    -4.349000000    -2.954000000
H    -3.810000000    -5.363000000    -3.169000000
O    -6.975000000    -1.233000000     0.595000000
H    -6.593000000    -1.119000000     1.466000000
H    -7.578000000    -0.495000000     0.500000000
O     2.391000000    -4.801000000    -0.822000000
H     2.612000000    -4.178000000    -1.515000000
H     1.442000000    -4.727000000    -0.727000000
O    -0.785000000    -0.534000000    -5.449000000
H    -1.636000000    -0.950000000    -5.591000000
H    -0.159000000    -1.120000000    -5.873000000
O    -5.148000000     0.657000000    -1.444000000
H    -4.396000000     0.085000000    -1.602000000
H    -5.858000000     0.263000000    -1.951000000
O     1.601000000     4.537000000     4.146000000
H     1.742000000     5.364000000     4.607000000
H     2.352000000     4.459000000     3.557000000
O    -3.840000000     2.913000000    -2.966000000
H    -4.381000000     2.341000000    -2.421000000
H    -3.157000000     2.338000000    -3.313000000
O    -4.023000000     5.605000000     0.262000000
H    -4.293000000     5.482000000    -0.648000000
H    -4.221000000     4.770000000     0.686000000
O     3.702000000     3.925000000    -4.319000000
H     3.541000000     4.111000000    -3.394000000
H     4.613000000     3.632000000    -4.350000000
O    -0.574000000    -1.900000000     3.597000000
H    -0.652000000    -1.549000000     2.710000000
H     0.218000000    -1.493000000     3.948000000
O    -2.405000000     0.791000000    -3.687000000
H    -2.643000000     0.064000000    -3.112000000
H    -1.677000000     0.455000000    -4.210000000
O     5.756000000     0.227000000     2.920000000
H     5.089000000     0.887000000     3.108000000
H     5.342000000    -0.604000000     3.154000000
O     3.779000000    -2.997000000     1.024000000
H     3.797000000    -3.769000000     0.458000000
H     3.502000000    -2.285000000     0.448000000
O    -1.729000000     0.942000000     4.022000000
H    -1.869000000     0.864000000     3.078000000
H    -2.242000000     0.228000000     4.400000000
O     5.865000000    -0.485000000    -0.164000000
H     6.018000000    -0.059000000     0.679000000
H     6.155000000    -1.388000000    -0.032000000
O    -2.082000000    -6.570000000     0.766000000
H    -1.552000000    -7.027000000     1.419000000
H    -2.513000000    -5.869000000     1.256000000
O     0.475000000    -2.724000000    -3.579000000
H    -0.181000000    -2.986000000    -2.933000000
H     0.209000000    -3.169000000    -4.384000000
O    -3.837000000     1.167000000    -6.374000000
H    -4.600000000     0.600000000    -6.483000000
H    -3.630000000     1.114000000    -5.440000000
O    -3.288000000    -1.978000000    -4.559000000
H    -3.421000000    -1.749000000    -3.639000000
H    -2.917000000    -2.860000000    -4.535000000
O     2.946000000    -2.996000000    -2.573000000
H     2.049000000    -3.020000000    -2.906000000
H     3.493000000    -3.135000000    -3.346000000
O    -5.558000000     2.966000000     0.731000000
H    -5.466000000     2.374000000    -0.015000000
H    -5.753000000     2.391000000     1.471000000
O    -0.124000000    -7.722000000    -3.339000000
H    -0.508000000    -7.217000000    -2.623000000
H    -0.846000000    -7.854000000    -3.954000000
O     4.754000000     0.267000000    -2.603000000
H     3.865000000    -0.084000000    -2.559000000
H     5.178000000    -0.057000000    -1.808000000
O    -0.203000000     4.923000000     1.538000000
H     0.700000000     5.068000000     1.822000000
H    -0.191000000     5.108000000     0.599000000
O    -0.744000000     2.932000000    -4.212000000
H    -0.076000000     3.475000000    -4.630000000
H    -0.290000000     2.518000000    -3.478000000
O    -1.614000000    -4.424000000     3.842000000
H    -2.243000000    -4.466000000     3.122000000
H    -1.410000000    -3.492000000     3.928000000
O     4.071000000     4.573000000     2.767000000
H     4.395000000     4.265000000     1.920000000
H     3.910000000     5.508000000     2.635000000
O     2.457000000    -6.784000000     1.653000000
H     1.705000000    -6.839000000     2.243000000
H     2.172000000    -6.194000000     0.955000000
O    -1.606000000     4.370000000    -1.276000000
H    -1.966000000     4.203000000    -2.146000000
H    -2.345000000     4.708000000    -0.771000000
O     3.966000000    -2.053000000     3.393000000
H     3.769000000    -2.395000000     2.521000000
H     4.176000000    -2.828000000     3.913000000
O     3.627000000     5.353000000    -0.126000000
H     2.681000000     5.498000000    -0.103000000
H     3.721000000     4.422000000    -0.325000000
O     1.093000000     1.724000000    -2.587000000
H     0.590000000     1.242000000    -1.930000000
H     1.498000000     1.043000000    -3.124000000
O    -2.669000000     4.958000000     3.300000000
H    -2.015000000     4.711000000     3.954000000
H    -2.331000000     4.604000000     2.477000000
O    -3.315000000    -4.342000000     1.731000000
H    -4.158000000    -4.505000000     2.154000000
H    -3.491000000    -3.637000000     1.108000000
