161
-3060.23187
C    -1.314000000     0.297000000    -0.567000000
H    -2.182000000     0.717000000    -1.067000000
C    -0.672000000     1.108000000     0.403000000
H    -0.970000000     2.134000000     0.604000000
C     0.572000000     0.721000000     0.879000000
C     1.342000000     1.615000000     1.742000000
H     2.267000000     1.138000000     2.073000000
H     1.778000000     2.418000000     1.144000000
H     0.792000000     1.981000000     2.611000000
C     1.054000000    -0.570000000     0.491000000
H     1.987000000    -0.893000000     0.946000000
C     0.313000000    -1.422000000    -0.326000000
H     0.758000000    -2.331000000    -0.722000000
C    -0.892000000    -1.025000000    -0.903000000
C    -1.491000000    -1.748000000    -2.080000000
O    -1.044000000    -2.852000000    -2.321000000
O    -2.305000000    -1.286000000    -2.908000000
O     5.832000000     1.531000000     4.594000000
H     5.275000000     1.166000000     5.281000000
H     6.374000000     0.796000000     4.309000000
O     3.886000000     5.191000000     3.253000000
H     2.984000000     5.491000000     3.371000000
H     4.238000000     5.756000000     2.566000000
O     3.062000000     5.874000000    -2.733000000
H     2.901000000     4.984000000    -2.420000000
H     2.631000000     5.909000000    -3.586000000
O     4.383000000    -3.186000000     1.897000000
H     3.895000000    -3.105000000     1.078000000
H     5.301000000    -3.109000000     1.639000000
O    -4.928000000     2.187000000     1.070000000
H    -5.276000000     1.548000000     0.448000000
H    -5.172000000     1.843000000     1.929000000
O    -2.030000000    -1.963000000     2.661000000
H    -1.422000000    -1.555000000     2.044000000
H    -2.100000000    -1.335000000     3.380000000
O    -3.525000000    -6.393000000    -1.239000000
H    -4.157000000    -7.103000000    -1.353000000
H    -3.338000000    -6.388000000    -0.301000000
O     3.070000000     3.136000000    -1.908000000
H     2.491000000     2.501000000    -2.331000000
H     3.408000000     2.677000000    -1.140000000
O    -1.958000000    -4.269000000    -4.599000000
H    -1.547000000    -3.819000000    -3.861000000
H    -2.799000000    -4.572000000    -4.256000000
O    -1.690000000     4.670000000     3.644000000
H    -2.324000000     4.607000000     2.929000000
H    -1.021000000     5.272000000     3.319000000
O     4.747000000     1.465000000    -0.031000000
H     4.640000000     1.874000000     0.828000000
H     5.640000000     1.122000000    -0.023000000
O    -5.929000000     0.151000000    -0.353000000
H    -5.263000000    -0.483000000    -0.619000000
H    -6.708000000    -0.099000000    -0.849000000
O     1.558000000    -3.849000000    -2.562000000
H     1.546000000    -3.994000000    -3.508000000
H     0.666000000    -3.574000000    -2.350000000
O    -4.226000000    -2.672000000    -6.663000000
H    -3.423000000    -2.901000000    -7.132000000
H    -4.038000000    -2.885000000    -5.749000000
O    -4.605000000    -3.972000000     0.618000000
H    -4.717000000    -3.282000000    -0.036000000
H    -4.750000000    -3.533000000     1.456000000
O    -4.462000000    -1.980000000    -1.522000000
H    -5.094000000    -2.358000000    -2.133000000
H    -3.762000000    -1.640000000    -2.079000000
O     4.715000000    -1.211000000    -1.384000000
H     5.508000000    -0.870000000    -0.969000000
H     4.227000000    -0.430000000    -1.645000000
O    -2.656000000     2.163000000     4.212000000
H    -3.499000000     2.357000000     3.803000000
H    -2.074000000     2.857000000     3.901000000
O    -4.782000000    -1.853000000     2.534000000
H    -3.839000000    -1.929000000     2.389000000
H    -4.877000000    -1.075000000     3.084000000
O     3.038000000    -0.687000000    -4.249000000
H     2.532000000    -1.146000000    -4.919000000
H     3.828000000    -1.217000000    -4.141000000
O    -5.363000000    -0.936000000    -4.577000000
H    -5.689000000    -1.824000000    -4.429000000
H    -5.196000000    -0.897000000    -5.519000000
O     0.638000000     0.923000000    -3.270000000
H     1.196000000     0.166000000    -3.451000000
H     0.290000000     0.759000000    -2.394000000
O     2.107000000    -7.242000000    -0.408000000
H     2.995000000    -7.260000000    -0.049000000
H     1.705000000    -6.468000000    -0.014000000
O    -0.742000000    -1.059000000    -5.242000000
H    -1.027000000    -0.148000000    -5.162000000
H    -1.243000000    -1.526000000    -4.574000000
O    -3.408000000     5.648000000    -2.153000000
H    -4.063000000     4.963000000    -2.017000000
H    -2.593000000     5.268000000    -1.824000000
O    -1.982000000    -4.531000000     2.561000000
H    -2.102000000    -4.515000000     1.611000000
H    -1.975000000    -3.609000000     2.817000000
O    -4.140000000     0.784000000    -2.872000000
H    -4.710000000     0.380000000    -3.526000000
H    -3.301000000     0.334000000    -2.974000000
O     4.784000000     2.802000000     2.448000000
H     4.173000000     3.496000000     2.697000000
H     5.039000000     2.399000000     3.278000000
O     2.119000000    -5.038000000     2.539000000
H     1.743000000    -4.625000000     1.761000000
H     3.062000000    -4.905000000     2.449000000
O    -0.701000000     1.714000000    -5.464000000
H    -0.090000000     1.587000000    -4.739000000
H    -0.987000000     2.624000000    -5.380000000
O     0.994000000    -3.482000000     4.642000000
H     1.413000000    -3.851000000     3.864000000
H     0.878000000    -4.230000000     5.228000000
O    -0.870000000    -7.012000000    -1.609000000
H    -1.647000000    -6.473000000    -1.462000000
H    -0.964000000    -7.328000000    -2.507000000
O     3.935000000     0.360000000     6.562000000
H     4.316000000    -0.482000000     6.814000000
H     3.077000000     0.137000000     6.202000000
O     0.793000000    -5.298000000    -5.178000000
H     0.701000000    -6.249000000    -5.225000000
H    -0.106000000    -4.973000000    -5.124000000
O    -4.097000000    -5.506000000    -3.688000000
H    -3.895000000    -5.910000000    -2.844000000
H    -4.395000000    -6.232000000    -4.236000000
O     1.269000000     5.879000000     4.777000000
H     1.962000000     6.400000000     5.182000000
H     1.073000000     5.198000000     5.421000000
O    -3.765000000     3.345000000    -4.098000000
H    -3.908000000     2.646000000    -3.460000000
H    -3.964000000     2.941000000    -4.943000000
O     3.680000000    -3.461000000    -0.846000000
H     2.936000000    -3.412000000    -1.446000000
H     4.122000000    -2.618000000    -0.943000000
O     1.738000000    -1.026000000     6.083000000
H     0.994000000    -0.424000000     6.073000000
H     1.461000000    -1.758000000     5.532000000
O    -5.853000000    -3.507000000    -4.270000000
H    -5.201000000    -4.132000000    -3.955000000
H    -5.956000000    -3.715000000    -5.198000000
O     1.633000000    -2.621000000    -5.726000000
H     0.817000000    -2.231000000    -5.414000000
H     1.436000000    -3.554000000    -5.809000000
O    -3.011000000     4.890000000     1.304000000
H    -3.818000000     5.116000000     0.840000000
H    -2.328000000     4.942000000     0.636000000
O    -5.039000000     3.390000000    -1.443000000
H    -4.874000000     3.309000000    -0.504000000
H    -4.850000000     2.520000000    -1.795000000
O    -2.029000000    -0.484000000     4.811000000
H    -2.159000000     0.446000000     4.624000000
H    -1.581000000    -0.498000000     5.657000000
O     0.655000000    -4.618000000     0.416000000
H     1.045000000    -4.392000000    -0.429000000
H    -0.285000000    -4.495000000     0.286000000
O    -1.154000000     5.194000000    -0.416000000
H    -0.727000000     5.424000000     0.409000000
H    -0.736000000     5.757000000    -1.067000000
O    -2.033000000    -4.244000000    -0.151000000
H    -2.984000000    -4.152000000    -0.096000000
H    -1.787000000    -3.732000000    -0.921000000
O    -2.168000000    -5.466000000    -6.887000000
H    -2.301000000    -4.702000000    -7.448000000
H    -2.138000000    -5.110000000    -5.999000000
