161
-3076.16756
C    -0.054000000     0.602000000    -1.300000000
H    -0.013000000     1.155000000    -2.235000000
C    -0.168000000     1.258000000    -0.106000000
H    -0.356000000     2.325000000    -0.020000000
C    -0.080000000     0.539000000     1.128000000
C    -0.179000000     1.377000000     2.400000000
H    -1.205000000     1.686000000     2.611000000
H     0.192000000     0.867000000     3.291000000
H     0.375000000     2.313000000     2.299000000
C     0.130000000    -0.837000000     1.042000000
H     0.153000000    -1.499000000     1.904000000
C     0.254000000    -1.533000000    -0.191000000
H     0.468000000    -2.598000000    -0.206000000
C     0.174000000    -0.771000000    -1.396000000
C     0.142000000    -1.465000000    -2.728000000
O    -0.003000000    -2.685000000    -2.726000000
O     0.162000000    -0.739000000    -3.763000000
O     2.405000000     3.883000000     1.351000000
H     2.597000000     3.285000000     0.628000000
H     1.655000000     4.393000000     1.048000000
O    -0.249000000     7.569000000    -1.190000000
H    -0.632000000     7.543000000    -2.067000000
H    -0.307000000     6.666000000    -0.877000000
O    -2.274000000     4.013000000     0.055000000
H    -2.864000000     4.766000000     0.009000000
H    -2.740000000     3.316000000    -0.406000000
O     4.092000000    -3.233000000    -0.124000000
H     3.896000000    -2.338000000    -0.400000000
H     4.231000000    -3.711000000    -0.941000000
O    -2.980000000    -0.618000000     0.726000000
H    -2.024000000    -0.578000000     0.705000000
H    -3.189000000    -0.894000000     1.619000000
O    -2.162000000    -3.203000000    -4.607000000
H    -1.868000000    -2.898000000    -5.465000000
H    -1.552000000    -2.802000000    -3.988000000
O     0.403000000     5.034000000    -0.517000000
H     0.858000000     4.753000000    -1.312000000
H    -0.241000000     4.346000000    -0.354000000
O    -5.903000000     2.888000000     4.994000000
H    -5.068000000     3.147000000     4.604000000
H    -6.374000000     3.712000000     5.121000000
O     2.800000000     1.995000000    -0.490000000
H     1.925000000     1.613000000    -0.424000000
H     3.248000000     1.457000000    -1.143000000
O     2.002000000    -4.050000000    -4.468000000
H     1.983000000    -3.974000000    -5.421000000
H     1.193000000    -3.630000000    -4.177000000
O    -0.184000000     2.639000000     7.126000000
H     0.133000000     2.983000000     6.291000000
H    -0.651000000     3.373000000     7.526000000
O    -0.965000000    -6.793000000    -2.974000000
H    -0.472000000    -7.550000000    -3.290000000
H    -0.304000000    -6.224000000    -2.580000000
O    -4.384000000     0.236000000    -4.231000000
H    -4.506000000     0.078000000    -3.295000000
H    -3.453000000     0.440000000    -4.320000000
O    -5.926000000    -0.058000000     2.276000000
H    -5.513000000     0.628000000     1.752000000
H    -6.126000000    -0.752000000     1.647000000
O     2.540000000     2.021000000     6.824000000
H     2.616000000     1.178000000     6.378000000
H     1.643000000     2.037000000     7.156000000
O     4.108000000    -0.407000000    -0.999000000
H     4.321000000    -0.216000000    -0.085000000
H     4.883000000    -0.129000000    -1.488000000
O    -1.559000000     4.377000000     2.888000000
H    -1.504000000     4.458000000     1.936000000
H    -1.413000000     5.266000000     3.213000000
O    -4.633000000    -0.374000000    -1.652000000
H    -4.641000000    -1.131000000    -2.238000000
H    -3.970000000    -0.586000000    -0.995000000
O     3.886000000     3.259000000    -5.399000000
H     4.639000000     3.122000000    -4.824000000
H     3.227000000     2.641000000    -5.081000000
O     0.218000000    -6.272000000    -6.296000000
H    -0.426000000    -6.761000000    -6.808000000
H    -0.185000000    -5.414000000    -6.159000000
O     4.733000000     1.305000000     1.450000000
H     4.886000000     1.859000000     2.215000000
H     4.084000000     1.783000000     0.934000000
O     1.582000000     1.443000000    -4.598000000
H     0.866000000     1.937000000    -4.997000000
H     1.178000000     0.625000000    -4.309000000
O    -3.508000000     0.127000000     4.179000000
H    -4.350000000    -0.148000000     3.817000000
H    -3.706000000     0.929000000     4.664000000
O    -3.360000000    -5.635000000    -1.902000000
H    -2.902000000    -4.909000000    -1.479000000
H    -2.712000000    -6.013000000    -2.497000000
O    -0.502000000    -1.506000000    -6.123000000
H    -0.360000000    -1.269000000    -5.206000000
H     0.241000000    -1.119000000    -6.587000000
O    -3.326000000     3.339000000     4.696000000
H    -2.696000000     3.800000000     4.143000000
H    -3.135000000     3.645000000     5.583000000
O    -1.785000000     1.107000000    -4.160000000
H    -1.396000000     1.594000000    -4.887000000
H    -1.236000000     0.328000000    -4.073000000
O     3.047000000     6.541000000    -0.657000000
H     3.426000000     5.986000000    -1.339000000
H     2.162000000     6.200000000    -0.535000000
O    -4.527000000    -2.828000000    -3.112000000
H    -4.068000000    -2.919000000    -3.947000000
H    -5.420000000    -3.118000000    -3.297000000
O     2.766000000    -5.590000000     1.333000000
H     3.256000000    -4.881000000     0.917000000
H     1.853000000    -5.303000000     1.298000000
O    -2.616000000    -5.980000000    -4.923000000
H    -2.586000000    -5.109000000    -4.528000000
H    -2.080000000    -6.524000000    -4.346000000
O     1.947000000     4.085000000    -2.714000000
H     2.841000000     3.755000000    -2.801000000
H     1.411000000     3.455000000    -3.195000000
O     0.323000000    -5.268000000     0.761000000
H    -0.043000000    -6.137000000     0.593000000
H    -0.412000000    -4.762000000     1.108000000
O     2.220000000    -0.948000000     6.013000000
H     2.960000000    -1.145000000     5.439000000
H     1.527000000    -1.541000000     5.723000000
O    -1.981000000    -3.865000000     1.395000000
H    -1.936000000    -3.371000000     2.214000000
H    -2.055000000    -3.195000000     0.716000000
O     0.747000000     4.023000000     5.023000000
H     1.528000000     4.052000000     4.471000000
H     0.020000000     3.937000000     4.407000000
O    -0.913000000     3.665000000    -3.372000000
H    -1.518000000     2.975000000    -3.101000000
H    -1.396000000     4.478000000    -3.226000000
O     3.282000000    -6.108000000    -3.147000000
H     3.442000000    -5.520000000    -3.885000000
H     2.451000000    -5.809000000    -2.778000000
O     0.198000000    -2.274000000     4.957000000
H    -0.468000000    -1.649000000     4.672000000
H    -0.285000000    -3.087000000     5.108000000
O     4.649000000    -3.412000000    -5.471000000
H     3.985000000    -3.226000000    -6.135000000
H     4.149000000    -3.566000000    -4.669000000
O    -4.391000000     2.932000000     1.760000000
H    -4.167000000     2.632000000     0.879000000
H    -3.572000000     2.869000000     2.250000000
O    -4.131000000     2.386000000    -1.022000000
H    -4.237000000     1.465000000    -1.259000000
H    -4.481000000     2.868000000    -1.772000000
O    -2.141000000    -2.198000000     3.501000000
H    -2.570000000    -1.355000000     3.644000000
H    -2.278000000    -2.678000000     4.318000000
O     0.924000000    -4.975000000    -1.894000000
H     0.498000000    -4.178000000    -2.209000000
H     0.846000000    -4.929000000    -0.941000000
O    -2.303000000    -3.070000000    -1.310000000
H    -2.895000000    -3.029000000    -2.061000000
H    -1.443000000    -2.857000000    -1.671000000
O    -0.492000000     2.197000000    -6.601000000
H    -1.029000000     2.983000000    -6.707000000
H    -0.062000000     2.085000000    -7.448000000
O    -1.332000000     0.192000000     7.794000000
H    -0.391000000     0.019000000     7.835000000
H    -1.420000000     0.884000000     7.138000000
O     3.220000000     4.191000000     3.835000000
H     2.962000000     4.042000000     2.925000000
H     4.128000000     4.490000000     3.781000000
