161
-3036.80828
C    -0.936000000     0.793000000    -0.823000000
H    -1.529000000     1.225000000    -1.626000000
C    -1.293000000    -0.238000000     0.051000000
H    -2.348000000    -0.490000000     0.112000000
C    -0.321000000    -0.895000000     0.788000000
C    -0.756000000    -1.976000000     1.771000000
H    -0.819000000    -2.981000000     1.348000000
H     0.107000000    -2.145000000     2.418000000
H    -1.680000000    -1.740000000     2.303000000
C     1.039000000    -0.553000000     0.588000000
H     1.774000000    -1.075000000     1.195000000
C     1.337000000     0.495000000    -0.279000000
H     2.368000000     0.705000000    -0.553000000
C     0.360000000     1.181000000    -0.941000000
C     0.755000000     2.223000000    -1.932000000
O     1.919000000     2.336000000    -2.206000000
O     0.031000000     3.142000000    -2.213000000
O    -0.500000000    -1.124000000     5.207000000
H    -0.460000000    -1.658000000     6.001000000
H     0.267000000    -1.391000000     4.700000000
O    -0.829000000     8.147000000    -2.958000000
H     0.055000000     8.305000000    -3.290000000
H    -0.934000000     7.196000000    -2.999000000
O    -4.228000000     5.004000000    -3.117000000
H    -3.923000000     4.098000000    -3.067000000
H    -4.226000000     5.206000000    -4.052000000
O     5.275000000     2.257000000    -5.345000000
H     4.375000000     2.021000000    -5.121000000
H     5.394000000     3.130000000    -4.972000000
O     1.318000000     5.765000000    -3.659000000
H     0.470000000     5.608000000    -3.244000000
H     1.495000000     4.964000000    -4.153000000
O     1.976000000     7.659000000    -0.793000000
H     2.502000000     7.397000000    -0.038000000
H     1.410000000     6.906000000    -0.964000000
O    -1.862000000    -6.400000000     1.780000000
H    -2.537000000    -6.054000000     1.196000000
H    -2.319000000    -7.044000000     2.320000000
O     4.636000000     4.687000000     0.361000000
H     4.848000000     5.539000000    -0.019000000
H     3.968000000     4.325000000    -0.221000000
O     1.902000000    -1.432000000    -3.172000000
H     2.613000000    -1.091000000    -2.630000000
H     2.343000000    -1.922000000    -3.866000000
O    -3.375000000    -5.454000000     5.660000000
H    -2.900000000    -5.264000000     6.469000000
H    -3.278000000    -4.660000000     5.133000000
O    -5.882000000     0.992000000     2.594000000
H    -6.612000000     0.799000000     2.006000000
H    -5.252000000     1.461000000     2.047000000
O    -1.293000000     2.188000000    -4.556000000
H    -0.903000000     1.400000000    -4.936000000
H    -0.748000000     2.381000000    -3.794000000
O    -3.144000000     6.062000000    -0.377000000
H    -3.849000000     6.338000000    -0.963000000
H    -3.367000000     5.162000000    -0.141000000
O     2.707000000     1.288000000    -4.530000000
H     2.641000000     1.439000000    -3.587000000
H     1.856000000     0.926000000    -4.775000000
O     3.307000000     4.669000000     2.623000000
H     3.857000000     4.819000000     1.854000000
H     3.059000000     3.747000000     2.565000000
O     2.841000000    -3.950000000     2.495000000
H     3.686000000    -4.250000000     2.831000000
H     2.950000000    -3.948000000     1.544000000
O     4.346000000     1.534000000     2.400000000
H     3.460000000     1.746000000     2.694000000
H     4.247000000     0.714000000     1.916000000
O    -5.406000000    -3.376000000     2.675000000
H    -4.576000000    -3.115000000     3.074000000
H    -5.902000000    -3.772000000     3.391000000
O     5.149000000     1.750000000    -1.782000000
H     4.676000000     2.398000000    -2.304000000
H     5.432000000     2.230000000    -1.004000000
O     5.854000000     4.737000000    -3.816000000
H     5.601000000     5.430000000    -4.426000000
H     5.222000000     4.805000000    -3.100000000
O    -4.634000000    -1.669000000    -1.694000000
H    -5.204000000    -2.118000000    -1.071000000
H    -3.841000000    -2.204000000    -1.723000000
O    -1.149000000     2.635000000     1.576000000
H    -2.051000000     2.669000000     1.256000000
H    -0.870000000     1.735000000     1.411000000
O     1.019000000     4.956000000    -0.496000000
H     0.589000000     4.654000000     0.303000000
H     0.874000000     4.251000000    -1.127000000
O     0.302000000    -0.080000000    -4.917000000
H     0.595000000    -0.622000000    -4.184000000
H     0.168000000    -0.700000000    -5.634000000
O    -1.140000000     5.407000000    -2.618000000
H    -1.990000000     5.364000000    -2.181000000
H    -0.736000000     4.557000000    -2.441000000
O    -0.280000000     1.507000000     6.118000000
H    -0.366000000     0.607000000     5.805000000
H    -0.787000000     2.027000000     5.494000000
O     0.921000000    -7.063000000     1.779000000
H     0.003000000    -6.832000000     1.921000000
H     0.966000000    -7.310000000     0.856000000
O    -2.471000000    -2.139000000    -4.233000000
H    -2.927000000    -2.910000000    -3.896000000
H    -1.631000000    -2.138000000    -3.774000000
O     4.367000000    -0.908000000     1.111000000
H     4.396000000    -1.820000000     1.402000000
H     4.373000000    -0.961000000     0.155000000
O    -3.406000000    -2.863000000     4.616000000
H    -2.755000000    -2.205000000     4.374000000
H    -3.678000000    -2.618000000     5.501000000
O     2.058000000    -3.801000000     6.509000000
H     2.915000000    -3.924000000     6.916000000
H     1.951000000    -4.564000000     5.941000000
O     3.512000000    -4.268000000    -0.269000000
H     3.556000000    -5.171000000    -0.582000000
H     4.269000000    -3.839000000    -0.668000000
O     3.835000000    -0.414000000    -6.499000000
H     4.141000000    -1.027000000    -5.831000000
H     3.538000000     0.350000000    -6.004000000
O     4.312000000    -0.837000000    -1.666000000
H     4.569000000     0.077000000    -1.790000000
H     4.879000000    -1.328000000    -2.260000000
O    -4.918000000     0.433000000    -3.346000000
H    -5.434000000     0.075000000    -4.068000000
H    -4.832000000    -0.295000000    -2.730000000
O    -2.544000000    -3.880000000    -1.695000000
H    -1.842000000    -3.261000000    -1.495000000
H    -2.128000000    -4.741000000    -1.634000000
O     1.589000000     2.372000000     3.287000000
H     1.610000000     1.975000000     4.158000000
H     0.691000000     2.237000000     2.984000000
O    -0.122000000    -2.873000000    -1.648000000
H     0.315000000    -2.030000000    -1.530000000
H     0.319000000    -3.460000000    -1.034000000
O    -3.476000000     3.163000000     0.084000000
H    -3.247000000     2.909000000    -0.810000000
H    -4.422000000     3.027000000     0.136000000
O    -1.660000000     4.681000000    -6.118000000
H    -0.899000000     5.256000000    -6.037000000
H    -1.474000000     3.954000000    -5.524000000
O    -3.376000000     2.406000000    -2.790000000
H    -3.968000000     1.662000000    -2.908000000
H    -2.712000000     2.293000000    -3.470000000
O     1.971000000    -1.940000000     4.194000000
H     2.346000000    -2.144000000     5.051000000
H     2.416000000    -2.535000000     3.590000000
O     0.749000000    -4.852000000    -0.222000000
H     0.632000000    -5.089000000     0.697000000
H     1.697000000    -4.834000000    -0.347000000
O     2.394000000     3.943000000    -5.455000000
H     2.462000000     3.002000000    -5.297000000
H     2.707000000     4.058000000    -6.352000000
O     1.720000000    -5.582000000     4.538000000
H     1.541000000    -5.259000000     3.655000000
H     2.152000000    -6.425000000     4.402000000
O    -4.262000000    -5.247000000     0.344000000
H    -4.088000000    -4.614000000    -0.353000000
H    -4.586000000    -4.717000000     1.073000000
O     7.308000000     0.522000000     0.594000000
H     6.922000000     1.344000000     0.292000000
H     7.941000000     0.290000000    -0.086000000
O     3.497000000     4.424000000    -2.167000000
H     2.965000000     3.654000000    -2.371000000
H     2.882000000     5.156000000    -2.201000000
