161
-3049.50736
C    -0.448000000    -1.244000000     0.658000000
H    -0.961000000    -2.148000000     0.976000000
C    -1.224000000    -0.567000000    -0.292000000
H    -2.190000000    -0.934000000    -0.630000000
C    -0.724000000     0.626000000    -0.728000000
C    -1.352000000     1.492000000    -1.748000000
H    -2.416000000     1.254000000    -1.821000000
H    -1.311000000     2.558000000    -1.515000000
H    -0.881000000     1.432000000    -2.732000000
C     0.543000000     1.031000000    -0.387000000
H     0.923000000     1.987000000    -0.739000000
C     1.352000000     0.327000000     0.474000000
H     2.287000000     0.795000000     0.768000000
C     0.829000000    -0.835000000     1.033000000
C     1.650000000    -1.738000000     1.925000000
O     2.854000000    -1.540000000     2.027000000
O     1.076000000    -2.492000000     2.732000000
O     5.071000000     3.666000000     0.305000000
H     4.501000000     4.127000000    -0.310000000
H     4.687000000     2.792000000     0.378000000
O     3.592000000    -5.986000000     2.888000000
H     2.686000000    -5.697000000     2.987000000
H     4.093000000    -5.177000000     2.786000000
O     5.227000000     1.133000000    -3.204000000
H     5.656000000     0.821000000    -2.407000000
H     5.513000000     2.043000000    -3.289000000
O    -4.116000000    -0.852000000     2.754000000
H    -4.484000000    -1.526000000     2.182000000
H    -3.252000000    -1.185000000     2.992000000
O     6.757000000    -1.279000000    -1.503000000
H     5.902000000    -1.365000000    -1.081000000
H     7.179000000    -2.127000000    -1.363000000
O    -0.164000000    -0.548000000    -5.327000000
H     0.238000000    -0.676000000    -4.468000000
H     0.380000000    -1.061000000    -5.925000000
O     0.251000000     3.022000000    -6.170000000
H     0.820000000     3.788000000    -6.103000000
H     0.564000000     2.430000000    -5.486000000
O    -1.463000000     5.624000000     2.273000000
H    -1.961000000     4.867000000     2.582000000
H    -0.812000000     5.778000000     2.957000000
O    -2.008000000    -4.778000000     1.760000000
H    -1.608000000    -4.795000000     2.629000000
H    -2.939000000    -4.933000000     1.922000000
O    -0.794000000     6.930000000    -2.149000000
H    -1.408000000     6.409000000    -2.667000000
H    -0.422000000     6.308000000    -1.523000000
O     6.822000000    -4.333000000     4.677000000
H     6.647000000    -5.152000000     5.139000000
H     6.018000000    -4.156000000     4.189000000
O    -3.253000000     3.395000000     2.469000000
H    -3.945000000     3.401000000     3.130000000
H    -3.716000000     3.279000000     1.639000000
O     8.307000000    -0.856000000     1.644000000
H     7.405000000    -1.038000000     1.907000000
H     8.796000000    -1.635000000     1.908000000
O     5.043000000     1.151000000     0.942000000
H     4.770000000     0.906000000     1.826000000
H     4.903000000     0.361000000     0.420000000
O     3.348000000     5.057000000    -1.679000000
H     3.393000000     5.973000000    -1.952000000
H     4.009000000     4.616000000    -2.212000000
O    -4.817000000     1.151000000    -4.300000000
H    -4.019000000     0.981000000    -4.800000000
H    -4.879000000     2.106000000    -4.266000000
O     0.913000000    -5.974000000     6.322000000
H     0.777000000    -5.158000000     5.839000000
H     0.287000000    -5.932000000     7.044000000
O     0.154000000    -3.105000000     8.073000000
H     0.821000000    -3.189000000     7.393000000
H    -0.622000000    -2.787000000     7.610000000
O     0.688000000    -7.875000000     2.126000000
H     0.919000000    -7.017000000     2.483000000
H     0.773000000    -7.772000000     1.179000000
O    -3.443000000    -3.234000000    -4.753000000
H    -2.645000000    -3.669000000    -4.453000000
H    -3.348000000    -3.190000000    -5.704000000
O    -4.711000000     4.005000000    -3.489000000
H    -5.439000000     4.020000000    -2.866000000
H    -5.088000000     4.332000000    -4.305000000
O    -3.884000000    -6.091000000    -1.143000000
H    -2.988000000    -6.278000000    -1.424000000
H    -3.943000000    -5.136000000    -1.152000000
O    -5.260000000    -2.627000000     1.247000000
H    -4.707000000    -2.694000000     0.468000000
H    -6.074000000    -3.067000000     1.001000000
O     3.053000000    -0.346000000    -2.660000000
H     3.705000000     0.333000000    -2.832000000
H     3.535000000    -1.168000000    -2.740000000
O     0.835000000     4.151000000    -2.867000000
H    -0.009000000     4.507000000    -2.590000000
H     1.418000000     4.312000000    -2.126000000
O    -4.829000000    -1.551000000    -3.124000000
H    -4.771000000    -0.659000000    -3.465000000
H    -4.342000000    -2.081000000    -3.756000000
O     4.329000000    -1.232000000    -0.181000000
H     3.948000000    -1.343000000     0.689000000
H     3.588000000    -0.999000000    -0.740000000
O    -1.021000000    -4.003000000    -1.033000000
H    -1.344000000    -4.111000000    -0.138000000
H    -1.029000000    -4.887000000    -1.399000000
O    -2.206000000    -2.285000000     6.645000000
H    -2.799000000    -1.617000000     6.990000000
H    -2.154000000    -2.098000000     5.708000000
O    -2.219000000     4.791000000    -2.973000000
H    -2.265000000     4.370000000    -3.831000000
H    -3.083000000     4.645000000    -2.588000000
O     2.145000000    -3.340000000     5.428000000
H     3.041000000    -3.017000000     5.522000000
H     1.943000000    -3.219000000     4.501000000
O     0.188000000     5.030000000    -0.287000000
H    -0.181000000     4.564000000     0.464000000
H     1.094000000     5.208000000    -0.035000000
O    -3.721000000    -3.282000000    -1.131000000
H    -2.776000000    -3.284000000    -1.283000000
H    -4.075000000    -2.733000000    -1.831000000
O     2.345000000     4.801000000     1.519000000
H     2.881000000     5.420000000     2.015000000
H     2.152000000     4.099000000     2.140000000
O     5.129000000    -1.301000000     4.875000000
H     5.061000000    -1.330000000     5.829000000
H     5.512000000    -0.444000000     4.687000000
O    -0.804000000     0.775000000     3.385000000
H     0.052000000     1.204000000     3.383000000
H    -1.331000000     1.289000000     2.773000000
O     4.510000000    -3.232000000     3.235000000
H     4.054000000    -2.733000000     2.557000000
H     4.634000000    -2.608000000     3.950000000
O     0.781000000    -1.789000000    -2.760000000
H     0.105000000    -1.683000000    -2.091000000
H     1.352000000    -1.029000000    -2.646000000
O    -2.871000000     5.947000000    -0.232000000
H    -2.338000000     5.810000000     0.551000000
H    -2.623000000     5.232000000    -0.819000000
O    -1.369000000    -4.707000000     4.485000000
H    -1.709000000    -5.397000000     5.054000000
H    -2.004000000    -3.995000000     4.567000000
O     1.752000000     1.637000000    -4.421000000
H     2.182000000     0.987000000    -3.866000000
H     1.803000000     2.451000000    -3.922000000
O     1.585000000     2.120000000     3.666000000
H     1.834000000     1.252000000     3.983000000
H     1.249000000     2.571000000     4.441000000
O     0.893000000    -5.246000000     2.842000000
H     0.964000000    -4.332000000     2.564000000
H     0.120000000    -5.264000000     3.406000000
O    -2.249000000     1.375000000    -5.274000000
H    -1.531000000     0.745000000    -5.339000000
H    -1.838000000     2.224000000    -5.436000000
O    -6.384000000    -0.122000000    -0.909000000
H    -5.517000000    -0.094000000    -0.503000000
H    -6.220000000    -0.429000000    -1.801000000
O     3.525000000    -4.364000000    -0.898000000
H     3.936000000    -3.634000000    -1.362000000
H     3.808000000    -4.260000000     0.010000000
O    -1.598000000    -1.940000000     3.851000000
H    -1.205000000    -1.109000000     3.586000000
H    -1.080000000    -2.606000000     3.400000000
O     2.208000000    -0.149000000     4.945000000
H     2.581000000    -0.591000000     4.182000000
H     1.934000000    -0.861000000     5.523000000
