161
-3034.91546
C    -0.881000000     0.819000000    -0.800000000
H    -1.538000000     1.520000000    -1.308000000
C    -0.187000000     1.299000000     0.318000000
H    -0.310000000     2.319000000     0.675000000
C     0.627000000     0.402000000     0.950000000
C     1.307000000     0.835000000     2.284000000
H     2.093000000     0.094000000     2.443000000
H     1.748000000     1.828000000     2.180000000
H     0.707000000     0.661000000     3.180000000
C     0.771000000    -0.968000000     0.493000000
H     1.472000000    -1.655000000     0.959000000
C     0.053000000    -1.326000000    -0.623000000
H     0.221000000    -2.353000000    -0.938000000
C    -0.875000000    -0.495000000    -1.262000000
C    -1.539000000    -0.897000000    -2.548000000
O    -1.560000000    -2.057000000    -2.870000000
O    -2.110000000    -0.031000000    -3.133000000
O     6.243000000     2.225000000     1.068000000
H     5.881000000     1.351000000     0.924000000
H     7.033000000     2.075000000     1.588000000
O    -1.816000000     4.920000000    -0.802000000
H    -2.311000000     5.334000000    -0.095000000
H    -2.482000000     4.645000000    -1.431000000
O    -3.337000000     4.222000000    -5.871000000
H    -2.485000000     4.375000000    -6.281000000
H    -3.222000000     3.412000000    -5.375000000
O     0.896000000     5.057000000    -1.438000000
H    -0.024000000     5.202000000    -1.215000000
H     1.214000000     4.455000000    -0.764000000
O     3.425000000     4.481000000     1.425000000
H     3.140000000     4.309000000     2.322000000
H     4.122000000     3.844000000     1.268000000
O     4.673000000    -3.467000000    -1.572000000
H     5.246000000    -3.403000000    -0.808000000
H     4.547000000    -2.561000000    -1.853000000
O     5.909000000     0.716000000     4.496000000
H     6.648000000     0.232000000     4.127000000
H     5.151000000     0.411000000     3.998000000
O     3.187000000     1.876000000     6.856000000
H     3.755000000     2.612000000     6.627000000
H     3.308000000     1.765000000     7.799000000
O     0.689000000    -2.261000000    -4.683000000
H     0.341000000    -1.510000000    -5.163000000
H     0.087000000    -2.376000000    -3.948000000
O    -1.764000000     5.465000000     3.479000000
H    -2.280000000     5.955000000     4.119000000
H    -2.347000000     4.764000000     3.188000000
O     0.103000000    -5.339000000    -4.623000000
H     0.906000000    -5.092000000    -4.164000000
H     0.386000000    -5.516000000    -5.520000000
O     3.711000000    -1.122000000    -2.705000000
H     4.290000000    -0.820000000    -3.405000000
H     2.914000000    -1.399000000    -3.156000000
O     5.846000000    -2.941000000     0.848000000
H     6.564000000    -3.487000000     1.168000000
H     5.063000000    -3.314000000     1.255000000
O     2.869000000    -4.927000000     0.034000000
H     3.415000000    -5.698000000     0.187000000
H     3.179000000    -4.576000000    -0.800000000
O    -3.776000000     3.393000000     2.049000000
H    -4.226000000     3.891000000     1.367000000
H    -4.237000000     3.621000000     2.856000000
O    -2.692000000    -1.632000000     1.467000000
H    -2.951000000    -1.063000000     0.743000000
H    -1.747000000    -1.498000000     1.551000000
O     6.454000000    -0.519000000     0.389000000
H     5.590000000    -0.253000000     0.073000000
H     6.315000000    -1.388000000     0.764000000
O     4.940000000     4.436000000    -1.393000000
H     5.360000000     3.846000000    -2.019000000
H     4.278000000     3.895000000    -0.961000000
O    -3.903000000     4.040000000    -2.289000000
H    -4.752000000     3.601000000    -2.340000000
H    -3.295000000     3.439000000    -2.720000000
O     4.027000000     0.355000000    -0.498000000
H     3.219000000     0.868000000    -0.483000000
H     3.961000000    -0.172000000    -1.295000000
O     3.551000000    -3.640000000     2.435000000
H     2.699000000    -3.261000000     2.649000000
H     3.416000000    -4.077000000     1.595000000
O    -2.089000000     2.618000000    -3.733000000
H    -1.148000000     2.776000000    -3.661000000
H    -2.176000000     1.666000000    -3.686000000
O    -2.445000000    -2.342000000    -7.253000000
H    -1.913000000    -1.817000000    -6.655000000
H    -2.671000000    -3.124000000    -6.749000000
O    -1.192000000    -0.498000000    -5.739000000
H    -1.654000000    -0.460000000    -4.902000000
H    -0.955000000     0.411000000    -5.923000000
O    -3.245000000     0.865000000     2.936000000
H    -2.840000000     0.291000000     2.285000000
H    -3.164000000     1.743000000     2.564000000
O    -4.525000000    -1.133000000    -3.356000000
H    -3.627000000    -0.945000000    -3.084000000
H    -4.697000000    -0.510000000    -4.061000000
O    -4.524000000    -2.745000000    -0.708000000
H    -4.307000000    -2.143000000    -1.420000000
H    -5.469000000    -2.648000000    -0.590000000
O     1.166000000    -2.898000000     3.463000000
H     0.723000000    -2.066000000     3.628000000
H     0.478000000    -3.558000000     3.555000000
O    -2.475000000    -4.249000000    -4.188000000
H    -1.701000000    -4.805000000    -4.279000000
H    -2.126000000    -3.384000000    -3.976000000
O     2.057000000     2.278000000    -1.099000000
H     1.178000000     2.175000000    -0.732000000
H     1.936000000     2.170000000    -2.042000000
O    -4.605000000    -0.132000000    -6.822000000
H    -3.961000000    -0.282000000    -7.515000000
H    -5.013000000    -0.987000000    -6.685000000
O    -0.993000000    -4.577000000     3.440000000
H    -1.726000000    -5.092000000     3.777000000
H    -0.337000000    -5.229000000     3.192000000
O    -2.253000000     0.681000000     5.596000000
H    -2.974000000     0.723000000     6.224000000
H    -2.617000000     1.043000000     4.788000000
O    -3.668000000    -5.705000000    -2.147000000
H    -3.036000000    -5.164000000    -1.673000000
H    -3.467000000    -5.553000000    -3.070000000
O     0.765000000     4.475000000     3.347000000
H     0.733000000     3.679000000     3.878000000
H    -0.105000000     4.861000000     3.441000000
O     0.459000000     2.603000000     5.467000000
H     1.269000000     2.518000000     5.970000000
H    -0.237000000     2.490000000     6.115000000
O     2.918000000    -4.939000000    -3.636000000
H     2.889000000    -4.367000000    -4.403000000
H     3.228000000    -4.375000000    -2.928000000
O     0.230000000    -0.173000000     6.914000000
H    -0.433000000     0.097000000     6.279000000
H    -0.183000000    -0.883000000     7.406000000
O    -5.765000000     2.372000000    -3.123000000
H    -6.233000000     1.651000000    -2.702000000
H    -5.816000000     2.177000000    -4.059000000
O     2.283000000    -3.821000000    -6.172000000
H     2.164000000    -3.699000000    -7.114000000
H     1.644000000    -3.233000000    -5.771000000
O     0.856000000     3.327000000    -3.902000000
H     0.828000000     3.515000000    -4.841000000
H     0.903000000     4.188000000    -3.487000000
O     2.688000000    -0.609000000     5.965000000
H     2.878000000     0.317000000     6.113000000
H     1.802000000    -0.730000000     6.306000000
O     0.183000000    -5.653000000     0.337000000
H    -0.508000000    -5.065000000     0.031000000
H     0.990000000    -5.150000000     0.230000000
O    -1.630000000    -4.107000000    -0.830000000
H    -2.377000000    -3.786000000    -0.325000000
H    -1.610000000    -3.550000000    -1.608000000
O     4.250000000    -2.636000000     5.130000000
H     3.727000000    -1.914000000     5.479000000
H     3.979000000    -2.708000000     4.215000000
O    -4.510000000     0.456000000    -0.726000000
H    -4.397000000     1.124000000    -1.402000000
H    -5.450000000     0.276000000    -0.722000000
O    -0.501000000     1.833000000    -6.447000000
H    -1.193000000     2.057000000    -7.069000000
H     0.280000000     1.716000000    -6.989000000
O     1.678000000     6.925000000     2.221000000
H     1.253000000     6.230000000     2.723000000
H     2.591000000     6.647000000     2.150000000
