161
-3049.53140
C     1.057000000    -0.638000000    -0.804000000
H     1.853000000    -0.951000000    -1.474000000
C     1.262000000     0.377000000     0.127000000
H     2.290000000     0.729000000     0.147000000
C     0.247000000     0.859000000     0.894000000
C     0.377000000     2.017000000     1.801000000
H     0.360000000     1.647000000     2.828000000
H     1.379000000     2.447000000     1.742000000
H    -0.335000000     2.835000000     1.673000000
C    -0.995000000     0.304000000     0.732000000
H    -1.876000000     0.633000000     1.277000000
C    -1.281000000    -0.724000000    -0.248000000
H    -2.322000000    -1.009000000    -0.375000000
C    -0.243000000    -1.165000000    -1.018000000
C    -0.516000000    -2.133000000    -2.110000000
O    -1.622000000    -2.407000000    -2.559000000
O     0.370000000    -2.817000000    -2.638000000
O     6.039000000     4.789000000     1.351000000
H     5.273000000     4.725000000     0.781000000
H     6.539000000     5.525000000     0.999000000
O    -1.470000000     5.417000000     2.577000000
H    -1.495000000     5.696000000     3.493000000
H    -0.542000000     5.451000000     2.342000000
O     7.349000000     0.235000000    -2.140000000
H     7.298000000     0.727000000    -2.959000000
H     6.579000000     0.515000000    -1.644000000
O    -4.280000000     3.669000000     3.408000000
H    -4.481000000     3.891000000     4.318000000
H    -3.528000000     4.219000000     3.188000000
O     5.338000000    -3.434000000    -4.425000000
H     4.548000000    -3.525000000    -3.892000000
H     6.053000000    -3.684000000    -3.840000000
O    -5.361000000     0.135000000    -1.249000000
H    -5.964000000     0.601000000    -1.829000000
H    -4.689000000    -0.216000000    -1.833000000
O    -3.534000000    -0.764000000    -2.968000000
H    -3.139000000    -0.046000000    -3.463000000
H    -2.847000000    -1.429000000    -2.920000000
O    -0.778000000     2.132000000    -1.747000000
H    -1.452000000     2.604000000    -1.258000000
H    -0.428000000     1.498000000    -1.122000000
O    -4.920000000     0.754000000     3.913000000
H    -4.771000000     1.689000000     3.773000000
H    -4.887000000     0.646000000     4.863000000
O     0.365000000     5.006000000     5.424000000
H     0.098000000     4.112000000     5.638000000
H     0.964000000     5.252000000     6.129000000
O    -2.447000000     3.814000000     0.060000000
H    -2.750000000     4.604000000    -0.388000000
H    -2.086000000     4.131000000     0.887000000
O     4.734000000    -2.219000000    -0.829000000
H     5.548000000    -2.373000000    -1.308000000
H     4.046000000    -2.525000000    -1.421000000
O     3.831000000    -1.898000000     3.347000000
H     3.479000000    -1.472000000     4.129000000
H     3.059000000    -2.119000000     2.826000000
O     1.016000000     3.348000000    -3.235000000
H     0.370000000     3.930000000    -3.635000000
H     0.546000000     2.928000000    -2.514000000
O     5.339000000     1.682000000    -4.252000000
H     5.106000000     2.610000000    -4.229000000
H     4.508000000     1.230000000    -4.394000000
O     5.704000000    -3.006000000     1.597000000
H     5.096000000    -2.546000000     2.175000000
H     5.607000000    -2.569000000     0.751000000
O     2.538000000    -6.806000000    -3.990000000
H     1.686000000    -7.214000000    -3.836000000
H     2.332000000    -5.895000000    -4.200000000
O     4.673000000     3.227000000    -1.553000000
H     3.935000000     3.639000000    -1.104000000
H     4.455000000     2.295000000    -1.568000000
O     4.580000000     1.389000000     2.041000000
H     5.461000000     1.567000000     2.371000000
H     4.052000000     1.255000000     2.828000000
O    -6.324000000    -0.321000000     1.446000000
H    -6.251000000    -0.064000000     0.526000000
H    -5.667000000     0.210000000     1.895000000
O     4.958000000     0.519000000    -0.752000000
H     4.737000000     0.736000000     0.154000000
H     4.555000000    -0.337000000    -0.898000000
O     0.081000000    -7.426000000    -2.980000000
H     0.087000000    -6.673000000    -2.390000000
H    -0.737000000    -7.340000000    -3.470000000
O    -1.444000000    -3.030000000     2.480000000
H    -2.336000000    -2.783000000     2.724000000
H    -1.484000000    -3.166000000     1.534000000
O    -5.969000000     4.273000000     0.491000000
H    -5.206000000     3.703000000     0.585000000
H    -6.099000000     4.346000000    -0.454000000
O    -5.710000000    -3.352000000     0.670000000
H    -6.340000000    -4.039000000     0.887000000
H    -5.994000000    -3.028000000    -0.185000000
O    -1.992000000    -1.119000000    -7.148000000
H    -2.892000000    -0.823000000    -7.286000000
H    -2.062000000    -2.070000000    -7.068000000
O    -2.201000000     1.285000000    -4.101000000
H    -1.549000000     1.481000000    -3.428000000
H    -1.832000000     1.650000000    -4.906000000
O    -1.534000000     2.212000000     6.755000000
H    -0.771000000     2.411000000     7.297000000
H    -1.295000000     1.410000000     6.291000000
O    -4.444000000     2.121000000     0.350000000
H    -3.576000000     2.384000000     0.657000000
H    -4.270000000     1.488000000    -0.346000000
O    -2.584000000    -7.328000000    -0.980000000
H    -3.110000000    -6.877000000    -0.320000000
H    -1.997000000    -6.653000000    -1.321000000
O    -6.280000000    -3.035000000    -1.989000000
H    -6.959000000    -2.704000000    -2.578000000
H    -5.490000000    -3.067000000    -2.528000000
O     3.017000000    -3.290000000    -2.675000000
H     2.080000000    -3.093000000    -2.697000000
H     3.072000000    -4.143000000    -2.244000000
O    -5.136000000    -2.103000000    -4.924000000
H    -5.703000000    -1.664000000    -5.557000000
H    -4.521000000    -1.426000000    -4.642000000
O     3.149000000     1.152000000     4.434000000
H     2.594000000     1.806000000     4.860000000
H     3.170000000     0.419000000     5.050000000
O    -0.980000000    -0.309000000     5.079000000
H    -1.632000000    -0.306000000     4.378000000
H    -0.143000000    -0.416000000     4.626000000
O    -2.323000000    -3.997000000    -7.218000000
H    -2.342000000    -4.950000000    -7.306000000
H    -2.326000000    -3.843000000    -6.273000000
O     1.436000000    -4.537000000    -4.724000000
H     1.829000000    -3.887000000    -5.306000000
H     0.959000000    -4.019000000    -4.074000000
O     0.749000000    -1.610000000    -5.038000000
H     0.644000000    -1.983000000    -4.162000000
H    -0.146000000    -1.503000000    -5.361000000
O     3.399000000     5.073000000    -0.032000000
H     3.209000000     5.979000000    -0.276000000
H     3.173000000     5.022000000     0.897000000
O    -4.134000000    -2.367000000     2.846000000
H    -4.610000000    -1.549000000     2.987000000
H    -4.168000000    -2.503000000     1.899000000
O    -0.810000000    -5.522000000    -1.587000000
H    -0.614000000    -4.599000000    -1.752000000
H    -0.531000000    -5.667000000    -0.683000000
O     2.630000000    -5.659000000    -1.560000000
H     2.638000000    -6.389000000    -2.179000000
H     1.896000000    -5.848000000    -0.975000000
O    -2.929000000    -3.590000000    -0.010000000
H    -3.067000000    -3.039000000    -0.780000000
H    -3.770000000    -4.025000000     0.127000000
O     0.742000000    -5.961000000     0.840000000
H     0.425000000    -5.680000000     1.698000000
H     1.029000000    -6.865000000     0.974000000
O     3.012000000     0.329000000    -4.864000000
H     2.225000000    -0.216000000    -4.875000000
H     2.708000000     1.195000000    -5.135000000
O     0.180000000    -6.741000000    -5.822000000
H     0.486000000    -5.960000000    -5.362000000
H     0.979000000    -7.226000000    -6.029000000
O    -2.789000000    -4.138000000    -4.498000000
H    -2.567000000    -3.432000000    -3.891000000
H    -2.496000000    -4.935000000    -4.057000000
O     0.915000000    -1.711000000     2.610000000
H     0.681000000    -1.234000000     1.814000000
H     0.229000000    -2.372000000     2.704000000
