161
-3051.08817
C    -0.077000000    -0.632000000     1.335000000
H    -0.131000000    -0.947000000     2.374000000
C    -0.994000000     0.282000000     0.805000000
H    -1.854000000     0.591000000     1.394000000
C    -0.819000000     0.785000000    -0.485000000
C    -1.841000000     1.700000000    -1.072000000
H    -2.257000000     1.296000000    -1.997000000
H    -2.656000000     1.898000000    -0.373000000
H    -1.386000000     2.660000000    -1.325000000
C     0.287000000     0.414000000    -1.213000000
H     0.399000000     0.717000000    -2.251000000
C     1.269000000    -0.448000000    -0.693000000
H     2.093000000    -0.802000000    -1.307000000
C     1.036000000    -1.003000000     0.587000000
C     2.039000000    -1.940000000     1.212000000
O     2.970000000    -2.410000000     0.574000000
O     1.920000000    -2.169000000     2.436000000
O     3.612000000    -5.262000000    -0.118000000
H     3.091000000    -5.352000000    -0.916000000
H     3.443000000    -4.368000000     0.180000000
O    -2.963000000    -1.533000000     3.598000000
H    -3.732000000    -1.734000000     3.064000000
H    -2.734000000    -0.635000000     3.360000000
O     7.189000000    -1.316000000    -0.141000000
H     7.479000000    -2.010000000     0.450000000
H     6.392000000    -0.974000000     0.263000000
O     1.043000000    -7.208000000     4.025000000
H     0.568000000    -6.713000000     3.357000000
H     1.881000000    -6.754000000     4.110000000
O     3.549000000     0.098000000    -3.612000000
H     3.657000000     0.640000000    -2.830000000
H     4.339000000    -0.443000000    -3.638000000
O     3.530000000     2.231000000    -5.845000000
H     3.744000000     1.577000000    -5.179000000
H     3.461000000     3.053000000    -5.360000000
O     6.169000000    -5.617000000    -1.070000000
H     5.336000000    -5.627000000    -0.600000000
H     6.832000000    -5.707000000    -0.384000000
O    -1.020000000     4.060000000    -6.597000000
H    -1.914000000     4.370000000    -6.744000000
H    -1.120000000     3.305000000    -6.018000000
O     1.362000000     3.040000000    -3.325000000
H     0.901000000     3.580000000    -2.683000000
H     2.272000000     3.043000000    -3.031000000
O    -0.256000000     3.656000000     1.830000000
H    -1.130000000     3.267000000     1.802000000
H    -0.207000000     4.071000000     2.692000000
O    -2.281000000    -4.662000000     2.406000000
H    -1.382000000    -4.874000000     2.153000000
H    -2.187000000    -4.055000000     3.139000000
O    -5.537000000     2.163000000     2.314000000
H    -5.566000000     3.087000000     2.067000000
H    -5.943000000     1.705000000     1.577000000
O     7.063000000    -3.449000000     2.769000000
H     7.147000000    -4.312000000     3.175000000
H     6.124000000    -3.263000000     2.793000000
O    -3.060000000     3.417000000     2.862000000
H    -4.004000000     3.266000000     2.894000000
H    -2.902000000     4.091000000     3.523000000
O     7.257000000     0.576000000     2.677000000
H     6.620000000     0.118000000     2.128000000
H     7.432000000    -0.031000000     3.396000000
O     3.429000000    -6.184000000     2.495000000
H     3.382000000    -7.138000000     2.554000000
H     3.334000000    -5.997000000     1.561000000
O    -3.924000000     2.382000000    -6.027000000
H    -4.667000000     1.991000000    -5.567000000
H    -3.175000000     1.840000000    -5.777000000
O     0.534000000    -6.046000000    -1.728000000
H    -0.025000000    -5.855000000    -2.481000000
H     1.173000000    -5.333000000    -1.718000000
O     3.336000000    -2.902000000     7.335000000
H     2.835000000    -3.019000000     6.528000000
H     2.674000000    -2.878000000     8.026000000
O    -0.071000000    -6.708000000     0.903000000
H     0.077000000    -5.880000000     1.361000000
H     0.192000000    -6.532000000    -0.001000000
O    -3.568000000     7.034000000    -2.857000000
H    -3.994000000     7.658000000    -2.269000000
H    -2.700000000     6.901000000    -2.477000000
O     2.756000000    -1.534000000    -5.919000000
H     3.171000000    -1.118000000    -6.674000000
H     2.836000000    -0.889000000    -5.216000000
O    -2.644000000    -5.032000000    -0.214000000
H    -2.385000000    -4.148000000    -0.472000000
H    -2.753000000    -4.983000000     0.736000000
O    -4.896000000    -1.516000000     1.635000000
H    -5.271000000    -2.370000000     1.847000000
H    -4.468000000    -1.646000000     0.789000000
O     0.602000000     4.813000000    -0.834000000
H     1.193000000     5.429000000    -0.400000000
H     0.129000000     4.390000000    -0.118000000
O    -4.123000000    -1.128000000    -3.662000000
H    -4.376000000    -0.697000000    -4.479000000
H    -3.676000000    -1.927000000    -3.942000000
O     5.213000000    -0.725000000     1.399000000
H     4.675000000    -1.508000000     1.514000000
H     4.583000000    -0.007000000     1.341000000
O    -1.309000000    -2.957000000    -1.363000000
H    -0.496000000    -2.927000000    -0.858000000
H    -1.112000000    -3.533000000    -2.101000000
O    -0.949000000    -1.974000000     7.658000000
H    -1.386000000    -1.177000000     7.356000000
H    -0.487000000    -2.300000000     6.886000000
O    -1.393000000     6.963000000    -1.235000000
H    -0.712000000     6.323000000    -1.445000000
H    -0.946000000     7.809000000    -1.270000000
O     2.119000000    -1.067000000     4.775000000
H     2.967000000    -0.634000000     4.877000000
H     2.085000000    -1.311000000     3.850000000
O     2.129000000     2.164000000     0.986000000
H     2.452000000     2.533000000     1.808000000
H     1.178000000     2.263000000     1.036000000
O    -3.828000000    -1.951000000    -1.122000000
H    -2.962000000    -2.356000000    -1.060000000
H    -3.839000000    -1.541000000    -1.987000000
O     4.615000000     0.271000000     5.089000000
H     5.352000000    -0.329000000     5.209000000
H     4.997000000     1.035000000     4.658000000
O    -2.210000000     1.285000000     4.229000000
H    -1.279000000     1.223000000     4.446000000
H    -2.267000000     2.029000000     3.629000000
O    -6.800000000     0.145000000     0.642000000
H    -6.253000000    -0.596000000     0.901000000
H    -7.618000000     0.018000000     1.123000000
O     4.445000000    -3.676000000     3.125000000
H     3.694000000    -3.122000000     2.910000000
H     4.185000000    -4.553000000     2.841000000
O    -4.798000000     0.639000000     4.409000000
H    -4.965000000     1.004000000     3.540000000
H    -3.878000000     0.838000000     4.580000000
O    -0.082000000    -1.701000000    -6.234000000
H    -0.297000000    -2.624000000    -6.096000000
H     0.859000000    -1.647000000    -6.066000000
O    -2.814000000     6.619000000     0.943000000
H    -2.514000000     5.780000000     1.294000000
H    -2.342000000     6.714000000     0.115000000
O     0.895000000    -3.173000000     5.536000000
H     0.084000000    -3.047000000     5.044000000
H     1.460000000    -2.453000000     5.256000000
O    -1.795000000    -3.494000000     4.795000000
H    -2.317000000    -2.706000000     4.645000000
H    -2.209000000    -3.915000000     5.549000000
O     3.642000000     2.069000000    -1.372000000
H     3.070000000     2.005000000    -0.608000000
H     4.169000000     2.852000000    -1.212000000
O     0.774000000    -4.698000000     2.638000000
H     1.160000000    -3.859000000     2.387000000
H     0.663000000    -4.637000000     3.587000000
O    -0.563000000     1.963000000    -4.916000000
H    -0.459000000     1.190000000    -4.362000000
H     0.136000000     2.554000000    -4.637000000
O    -5.587000000     1.057000000    -2.007000000
H    -4.699000000     0.711000000    -2.090000000
H    -5.954000000     0.595000000    -1.252000000
O     1.956000000    -3.508000000    -1.617000000
H     1.875000000    -2.913000000    -2.362000000
H     2.539000000    -3.054000000    -1.009000000
O     0.434000000     1.078000000     4.787000000
H     1.031000000     1.726000000     5.160000000
H     1.008000000     0.387000000     4.456000000
