161
-3065.84362
C     0.895000000    -0.437000000     1.077000000
H     1.673000000    -0.599000000     1.819000000
C    -0.188000000     0.396000000     1.238000000
H    -0.394000000     0.715000000     2.256000000
C    -0.938000000     0.759000000     0.126000000
C    -2.089000000     1.717000000     0.286000000
H    -2.127000000     2.217000000     1.257000000
H    -2.220000000     2.567000000    -0.387000000
H    -3.005000000     1.132000000     0.175000000
C    -0.741000000     0.111000000    -1.135000000
H    -1.351000000     0.382000000    -1.993000000
C     0.276000000    -0.773000000    -1.225000000
H     0.568000000    -1.157000000    -2.199000000
C     1.188000000    -0.996000000    -0.168000000
C     2.448000000    -1.807000000    -0.312000000
O     2.631000000    -2.412000000    -1.357000000
O     3.369000000    -1.813000000     0.541000000
O     1.266000000    -3.564000000    -3.192000000
H     0.694000000    -3.976000000    -2.544000000
H     2.021000000    -3.262000000    -2.687000000
O    -3.386000000    -2.770000000     3.354000000
H    -3.862000000    -2.322000000     2.655000000
H    -3.209000000    -2.086000000     3.999000000
O     4.415000000    -1.493000000    -3.338000000
H     4.059000000    -1.789000000    -2.500000000
H     5.226000000    -1.991000000    -3.444000000
O    -4.571000000    -0.976000000     1.461000000
H    -5.257000000    -0.310000000     1.415000000
H    -4.304000000    -1.109000000     0.551000000
O    -4.939000000     0.751000000    -1.651000000
H    -4.562000000    -0.128000000    -1.598000000
H    -4.525000000     1.143000000    -2.420000000
O     7.214000000    -1.977000000    -0.925000000
H     6.885000000    -1.148000000    -0.576000000
H     6.514000000    -2.606000000    -0.749000000
O     1.924000000    -5.629000000     1.156000000
H     2.007000000    -4.698000000     1.365000000
H     2.628000000    -6.049000000     1.650000000
O     2.448000000    -1.915000000    -5.330000000
H     2.056000000    -2.460000000    -4.647000000
H     3.092000000    -1.379000000    -4.869000000
O    -1.282000000     4.301000000    -4.184000000
H    -1.954000000     4.982000000    -4.190000000
H    -1.168000000     4.069000000    -5.106000000
O    -1.697000000     0.952000000    -5.986000000
H    -1.263000000     0.127000000    -6.204000000
H    -1.741000000     1.426000000    -6.816000000
O     1.040000000     5.616000000    -2.217000000
H     0.354000000     5.865000000    -1.598000000
H     0.900000000     4.681000000    -2.367000000
O    -3.498000000     6.818000000    -0.989000000
H    -3.642000000     6.199000000    -0.273000000
H    -2.842000000     6.394000000    -1.543000000
O     3.069000000    -5.171000000     3.700000000
H     3.776000000    -4.758000000     4.196000000
H     2.398000000    -4.492000000     3.630000000
O    -5.243000000     3.060000000    -0.376000000
H    -5.626000000     3.638000000    -1.036000000
H    -5.022000000     2.262000000    -0.857000000
O    -2.399000000     2.461000000     5.116000000
H    -2.802000000     3.321000000     5.000000000
H    -2.137000000     2.441000000     6.037000000
O     3.930000000     0.924000000     1.085000000
H     4.290000000     0.895000000     0.199000000
H     3.501000000     0.076000000     1.198000000
O     1.151000000     3.036000000     2.944000000
H     1.526000000     3.612000000     3.611000000
H     1.147000000     2.170000000     3.350000000
O     5.512000000    -5.433000000     1.478000000
H     5.261000000    -6.331000000     1.695000000
H     5.146000000    -5.286000000     0.606000000
O    -3.369000000     1.562000000    -3.900000000
H    -2.613000000     1.884000000    -3.408000000
H    -2.992000000     1.154000000    -4.679000000
O     0.240000000    -5.377000000    -4.938000000
H     0.886000000    -4.771000000    -4.576000000
H     0.109000000    -5.077000000    -5.838000000
O     5.610000000     1.892000000     2.830000000
H     6.219000000     2.491000000     2.398000000
H     5.122000000     1.488000000     2.112000000
O    -3.869000000     4.983000000     1.113000000
H    -4.265000000     4.239000000     0.660000000
H    -3.198000000     4.593000000     1.673000000
O     6.283000000    -3.501000000    -3.611000000
H     6.599000000    -3.940000000    -4.401000000
H     7.058000000    -3.419000000    -3.056000000
O    -1.001000000     6.091000000    -0.511000000
H    -1.041000000     5.489000000     0.232000000
H    -1.337000000     6.919000000    -0.166000000
O     5.349000000     0.639000000    -1.858000000
H     4.737000000     1.294000000    -2.194000000
H     5.225000000    -0.119000000    -2.430000000
O    -0.964000000    -3.993000000    -1.066000000
H    -0.788000000    -3.079000000    -0.845000000
H    -1.655000000    -3.952000000    -1.726000000
O     5.342000000    -2.327000000     2.040000000
H     5.622000000    -3.215000000     1.820000000
H     4.595000000    -2.162000000     1.465000000
O     0.882000000     2.040000000    -2.560000000
H     0.421000000     1.330000000    -2.113000000
H     0.842000000     1.805000000    -3.487000000
O    -2.681000000    -3.025000000    -3.147000000
H    -3.336000000    -3.451000000    -3.700000000
H    -2.018000000    -2.710000000    -3.762000000
O    -3.036000000     0.063000000     3.759000000
H    -3.276000000     0.056000000     2.833000000
H    -2.859000000     0.983000000     3.954000000
O     7.016000000     0.702000000     0.435000000
H     7.784000000     1.258000000     0.302000000
H     6.548000000     0.736000000    -0.399000000
O    -3.698000000    -1.887000000    -0.767000000
H    -3.246000000    -2.255000000    -1.526000000
H    -4.101000000    -2.642000000    -0.338000000
O     4.982000000    -4.025000000    -1.107000000
H     4.070000000    -3.754000000    -1.000000000
H     5.174000000    -3.862000000    -2.031000000
O    -7.585000000     0.533000000    -1.521000000
H    -6.636000000     0.478000000    -1.407000000
H    -7.936000000     0.482000000    -0.632000000
O    -5.695000000     1.669000000     2.367000000
H    -5.450000000     2.177000000     1.594000000
H    -6.021000000     2.320000000     2.988000000
O    -0.287000000    -1.329000000    -6.317000000
H     0.258000000    -1.817000000    -5.700000000
H     0.288000000    -1.162000000    -7.064000000
O     1.018000000    -3.265000000     3.426000000
H     0.317000000    -3.617000000     2.878000000
H     0.637000000    -3.219000000     4.303000000
O    -1.322000000    -4.288000000     2.181000000
H    -1.961000000    -3.717000000     2.609000000
H    -1.849000000    -4.860000000     1.623000000
O     3.504000000     2.636000000    -2.012000000
H     2.576000000     2.431000000    -2.119000000
H     3.555000000     3.080000000    -1.165000000
O    -1.209000000     4.857000000     2.294000000
H    -0.570000000     4.304000000     2.744000000
H    -1.043000000     5.737000000     2.631000000
O     0.303000000    -6.415000000    -0.916000000
H     1.138000000    -6.222000000    -0.489000000
H    -0.220000000    -5.624000000    -0.787000000
O     1.064000000     1.589000000    -5.345000000
H     0.206000000     1.350000000    -5.696000000
H     1.323000000     2.359000000    -5.851000000
O     7.984000000    -1.253000000     2.054000000
H     7.847000000    -0.470000000     1.521000000
H     7.101000000    -1.541000000     2.287000000
O     2.752000000     3.207000000     0.865000000
H     1.967000000     3.308000000     1.403000000
H     3.252000000     2.515000000     1.298000000
O    -2.893000000    -1.692000000     6.185000000
H    -2.088000000    -1.305000000     5.841000000
H    -3.360000000    -0.959000000     6.585000000
O    -0.213000000    -1.519000000     5.109000000
H     0.264000000    -0.694000000     5.201000000
H    -0.743000000    -1.403000000     4.321000000
O     4.829000000    -1.167000000     4.519000000
H     4.437000000    -0.301000000     4.408000000
H     4.971000000    -1.482000000     3.626000000
O     1.678000000     0.984000000     4.926000000
H     2.622000000     0.997000000     5.083000000
H     1.299000000     1.369000000     5.717000000
