161
-3041.90272
C     0.488000000     0.660000000    -1.236000000
H     0.728000000     0.970000000    -2.250000000
C    -0.812000000     0.403000000    -0.924000000
H    -1.565000000     0.378000000    -1.708000000
C    -1.168000000    -0.093000000     0.325000000
C    -2.651000000    -0.444000000     0.682000000
H    -2.756000000    -1.359000000     1.269000000
H    -2.908000000     0.427000000     1.290000000
H    -3.291000000    -0.517000000    -0.200000000
C    -0.155000000    -0.363000000     1.261000000
H    -0.391000000    -0.751000000     2.248000000
C     1.149000000    -0.144000000     0.915000000
H     1.944000000    -0.403000000     1.609000000
C     1.472000000     0.322000000    -0.323000000
C     2.929000000     0.278000000    -0.825000000
O     3.900000000     0.317000000    -0.118000000
O     3.091000000     0.326000000    -2.016000000
O    -4.275000000    -0.637000000    -5.921000000
H    -3.320000000    -0.656000000    -5.860000000
H    -4.463000000     0.077000000    -6.529000000
O     0.488000000     3.860000000    -1.407000000
H    -0.107000000     4.181000000    -2.084000000
H     1.268000000     3.579000000    -1.886000000
O    -4.650000000     3.463000000     2.144000000
H    -5.329000000     2.848000000     1.867000000
H    -4.266000000     3.780000000     1.326000000
O     4.211000000     2.592000000     1.450000000
H     4.957000000     3.159000000     1.253000000
H     4.344000000     1.821000000     0.898000000
O    -4.872000000     1.092000000    -2.257000000
H    -5.016000000     0.780000000    -1.364000000
H    -5.447000000     0.550000000    -2.797000000
O     0.341000000     3.005000000     1.150000000
H     0.687000000     3.442000000     0.372000000
H     0.279000000     2.084000000     0.899000000
O     6.427000000     3.455000000    -3.433000000
H     6.255000000     3.389000000    -2.493000000
H     5.865000000     2.789000000    -3.827000000
O    -6.445000000    -0.537000000    -3.486000000
H    -6.773000000    -1.075000000    -2.765000000
H    -7.178000000    -0.487000000    -4.099000000
O    -1.649000000    -1.862000000    -3.760000000
H    -1.266000000    -1.391000000    -4.501000000
H    -1.264000000    -1.446000000    -2.988000000
O     0.018000000     1.915000000    -6.247000000
H     0.059000000     2.683000000    -6.817000000
H     0.920000000     1.783000000    -5.958000000
O    -0.651000000    -3.629000000     0.567000000
H    -0.037000000    -4.317000000     0.824000000
H    -0.380000000    -2.864000000     1.075000000
O    -2.899000000    -4.085000000     2.232000000
H    -2.470000000    -3.956000000     1.386000000
H    -3.803000000    -4.306000000     2.011000000
O    -1.116000000    -4.595000000     4.177000000
H    -1.033000000    -5.540000000     4.051000000
H    -1.713000000    -4.312000000     3.484000000
O     0.386000000     0.799000000     4.512000000
H    -0.432000000     1.126000000     4.136000000
H     1.045000000     0.972000000     3.840000000
O    -5.198000000    -3.285000000    -0.690000000
H    -4.829000000    -3.226000000    -1.571000000
H    -4.949000000    -4.157000000    -0.384000000
O     5.045000000     1.071000000    -3.782000000
H     4.267000000     0.820000000    -3.283000000
H     5.165000000     0.359000000    -4.411000000
O     1.596000000    -3.958000000     2.824000000
H     2.034000000    -3.162000000     3.124000000
H     1.002000000    -4.189000000     3.538000000
O     7.771000000    -1.585000000     0.336000000
H     8.194000000    -1.020000000    -0.311000000
H     7.109000000    -2.064000000    -0.162000000
O     5.514000000    -2.462000000    -1.057000000
H     4.671000000    -2.505000000    -1.508000000
H     5.375000000    -2.945000000    -0.243000000
O     3.239000000    -1.848000000     3.993000000
H     3.565000000    -0.959000000     3.853000000
H     2.778000000    -1.806000000     4.830000000
O    -4.345000000    -2.584000000    -3.188000000
H    -4.856000000    -2.206000000    -3.903000000
H    -3.452000000    -2.278000000    -3.343000000
O    -5.148000000     0.236000000     3.726000000
H    -4.993000000     1.160000000     3.925000000
H    -5.228000000    -0.183000000     4.583000000
O    -6.743000000     1.722000000     1.521000000
H    -6.685000000     0.783000000     1.347000000
H    -7.516000000     1.815000000     2.078000000
O     5.446000000    -3.040000000     4.867000000
H     6.191000000    -2.980000000     4.268000000
H     4.795000000    -2.443000000     4.499000000
O     3.154000000    -4.445000000    -1.207000000
H     2.854000000    -5.234000000    -1.658000000
H     2.851000000    -3.724000000    -1.758000000
O     2.137000000     4.142000000    -5.145000000
H     2.403000000     3.561000000    -4.432000000
H     1.471000000     4.709000000    -4.757000000
O     6.178000000     1.189000000    -1.258000000
H     5.342000000     0.971000000    -0.845000000
H     6.019000000     1.074000000    -2.195000000
O    -4.019000000    -2.269000000     4.423000000
H    -3.424000000    -2.516000000     3.715000000
H    -4.567000000    -3.042000000     4.556000000
O     3.822000000    -3.011000000    -4.569000000
H     4.379000000    -3.745000000    -4.311000000
H     4.433000000    -2.348000000    -4.891000000
O    -4.226000000     3.583000000    -3.218000000
H    -4.323000000     2.708000000    -2.842000000
H    -3.682000000     3.451000000    -3.995000000
O     5.465000000    -0.784000000     1.668000000
H     4.876000000    -0.752000000     0.914000000
H     6.343000000    -0.781000000     1.285000000
O    -3.573000000     3.738000000     4.630000000
H    -4.259000000     3.734000000     3.962000000
H    -2.918000000     4.352000000     4.298000000
O    -0.920000000     4.944000000    -3.383000000
H    -1.781000000     5.287000000    -3.141000000
H    -1.064000000     4.504000000    -4.221000000
O     1.393000000    -1.667000000    -3.800000000
H     2.180000000    -1.932000000    -4.277000000
H     1.698000000    -0.999000000    -3.186000000
O     7.742000000    -1.185000000    -3.592000000
H     7.933000000    -0.397000000    -3.084000000
H     7.076000000    -1.644000000    -3.080000000
O     0.883000000     4.249000000     3.809000000
H     1.638000000     4.808000000     3.992000000
H     0.990000000     3.995000000     2.892000000
O     0.937000000    -4.241000000    -3.101000000
H     0.370000000    -4.220000000    -2.330000000
H     1.140000000    -3.322000000    -3.274000000
O     2.926000000     1.146000000     3.630000000
H     3.298000000     1.674000000     2.923000000
H     3.428000000     1.395000000     4.405000000
O    -2.387000000     3.107000000    -5.579000000
H    -1.575000000     2.601000000    -5.560000000
H    -3.040000000     2.501000000    -5.929000000
O     2.641000000     3.058000000    -2.725000000
H     3.008000000     2.178000000    -2.644000000
H     3.353000000     3.640000000    -2.458000000
O    -7.559000000    -1.990000000    -1.397000000
H    -6.876000000    -2.361000000    -0.838000000
H    -8.379000000    -2.230000000    -0.965000000
O    -1.458000000     5.155000000     0.058000000
H    -0.910000000     4.514000000    -0.396000000
H    -1.803000000     5.712000000    -0.640000000
O    -0.839000000    -0.866000000    -6.116000000
H    -0.345000000    -1.298000000    -6.813000000
H    -0.446000000     0.005000000    -6.048000000
O    -1.756000000     5.004000000     3.041000000
H    -0.926000000     4.917000000     3.510000000
H    -1.532000000     4.842000000     2.125000000
O     8.236000000     1.639000000     0.635000000
H     7.515000000     1.416000000     0.045000000
H     8.968000000     1.840000000     0.052000000
O     4.224000000     5.146000000     0.035000000
H     4.433000000     5.220000000    -0.897000000
H     3.348000000     4.760000000     0.053000000
O    -6.019000000    -1.131000000     1.345000000
H    -5.405000000    -1.730000000     0.920000000
H    -5.592000000    -0.894000000     2.168000000
O     0.658000000    -0.615000000     6.786000000
H     0.584000000    -0.082000000     5.994000000
H     0.205000000    -0.107000000     7.460000000
