161
-3021.59850
C     0.927000000     0.221000000    -1.111000000
H     1.510000000     0.381000000    -2.014000000
C    -0.504000000     0.101000000    -1.224000000
H    -0.947000000     0.165000000    -2.214000000
C    -1.281000000    -0.057000000    -0.106000000
C    -2.782000000    -0.174000000    -0.214000000
H    -3.159000000     0.850000000    -0.245000000
H    -3.121000000    -0.549000000    -1.182000000
H    -3.182000000    -0.767000000     0.611000000
C    -0.572000000    -0.237000000     1.155000000
H    -1.185000000    -0.234000000     2.052000000
C     0.819000000    -0.178000000     1.253000000
H     1.357000000    -0.078000000     2.193000000
C     1.589000000     0.101000000     0.084000000
C     3.105000000     0.197000000     0.246000000
O     3.587000000     0.203000000     1.381000000
O     3.843000000     0.061000000    -0.667000000
O     1.884000000    -1.329000000    -6.099000000
H     2.599000000    -1.621000000    -6.664000000
H     1.445000000    -0.644000000    -6.603000000
O     0.298000000     3.234000000     0.793000000
H    -0.142000000     2.483000000     0.396000000
H     0.658000000     2.896000000     1.613000000
O     7.082000000     3.697000000    -1.699000000
H     6.203000000     3.330000000    -1.609000000
H     7.196000000     4.240000000    -0.919000000
O     8.546000000     1.230000000     1.927000000
H     7.927000000     0.877000000     1.288000000
H     9.136000000     0.501000000     2.118000000
O     5.450000000    -0.043000000     3.796000000
H     5.865000000    -0.905000000     3.747000000
H     4.798000000    -0.052000000     3.095000000
O    -4.402000000     3.647000000     0.786000000
H    -4.149000000     3.018000000     1.462000000
H    -3.979000000     3.325000000    -0.010000000
O    -2.011000000     4.512000000     2.465000000
H    -2.589000000     5.181000000     2.831000000
H    -1.878000000     4.783000000     1.556000000
O    -3.482000000     0.970000000    -3.220000000
H    -3.564000000     1.381000000    -4.081000000
H    -3.224000000     0.068000000    -3.409000000
O     0.616000000    -3.418000000     0.165000000
H     1.413000000    -3.562000000    -0.346000000
H     0.497000000    -2.468000000     0.159000000
O     3.578000000    -4.877000000     1.171000000
H     3.662000000    -4.010000000     1.567000000
H     3.156000000    -4.716000000     0.327000000
O    -0.909000000    -2.521000000    -4.949000000
H    -0.199000000    -1.884000000    -4.873000000
H    -0.886000000    -2.799000000    -5.864000000
O    -1.599000000    -4.771000000    -1.327000000
H    -1.723000000    -5.533000000    -0.762000000
H    -0.938000000    -4.244000000    -0.879000000
O    -7.144000000    -0.675000000    -3.226000000
H    -7.503000000    -1.352000000    -2.652000000
H    -6.636000000    -0.111000000    -2.643000000
O     3.073000000    -3.102000000    -3.762000000
H     2.367000000    -2.988000000    -4.399000000
H     3.824000000    -3.382000000    -4.284000000
O    -4.966000000    -2.777000000    -1.400000000
H    -4.757000000    -2.158000000    -2.099000000
H    -5.014000000    -2.239000000    -0.610000000
O    -5.900000000     0.984000000    -1.245000000
H    -5.747000000     0.495000000    -0.437000000
H    -5.068000000     0.935000000    -1.716000000
O    -2.582000000    -0.934000000     4.571000000
H    -2.936000000    -0.050000000     4.466000000
H    -3.196000000    -1.495000000     4.096000000
O     4.802000000     0.444000000     6.460000000
H     4.769000000     0.172000000     5.543000000
H     3.884000000     0.532000000     6.716000000
O    -3.803000000    -2.637000000     2.742000000
H    -3.703000000    -3.293000000     2.052000000
H    -4.720000000    -2.368000000     2.686000000
O     3.897000000     3.085000000    -5.204000000
H     3.841000000     2.172000000    -5.487000000
H     4.834000000     3.242000000    -5.085000000
O     2.223000000    -3.507000000     4.166000000
H     2.800000000    -4.268000000     4.104000000
H     2.636000000    -2.847000000     3.609000000
O    -2.895000000     3.409000000    -1.543000000
H    -2.011000000     3.758000000    -1.658000000
H    -2.804000000     2.469000000    -1.702000000
O     3.715000000    -2.366000000     2.131000000
H     4.655000000    -2.207000000     2.209000000
H     3.350000000    -1.520000000     1.870000000
O    -3.522000000    -1.882000000    -4.124000000
H    -3.922000000    -2.545000000    -4.686000000
H    -2.591000000    -1.912000000    -4.343000000
O    -4.746000000     1.103000000     2.589000000
H    -5.282000000     1.266000000     3.365000000
H    -3.848000000     1.259000000     2.882000000
O     5.101000000    -2.132000000    -0.451000000
H     4.530000000    -1.395000000    -0.667000000
H     5.958000000    -1.734000000    -0.301000000
O     6.459000000    -2.522000000     3.292000000
H     6.562000000    -2.686000000     2.354000000
H     7.226000000    -2.930000000     3.692000000
O     6.587000000    -1.559000000    -3.437000000
H     5.635000000    -1.476000000    -3.489000000
H     6.845000000    -1.895000000    -4.296000000
O     1.538000000     3.036000000    -3.503000000
H     2.237000000     3.172000000    -4.142000000
H     0.833000000     2.625000000    -4.003000000
O     4.860000000     4.781000000     0.597000000
H     4.812000000     3.857000000     0.842000000
H     4.040000000     4.949000000     0.134000000
O    -0.417000000    -1.259000000     5.949000000
H    -0.345000000    -2.210000000     5.866000000
H    -1.159000000    -1.026000000     5.392000000
O    -1.720000000     4.526000000    -4.533000000
H    -1.565000000     4.260000000    -3.627000000
H    -2.400000000     3.929000000    -4.846000000
O     6.733000000     0.525000000     0.220000000
H     6.982000000     0.601000000    -0.701000000
H     5.786000000     0.388000000     0.202000000
O     1.667000000     2.890000000     3.483000000
H     2.282000000     3.096000000     4.187000000
H     0.811000000     3.136000000     3.833000000
O    -0.065000000     4.270000000    -1.722000000
H     0.475000000     3.795000000    -2.353000000
H     0.201000000     3.923000000    -0.870000000
O     3.973000000    -0.517000000    -3.407000000
H     3.964000000    -0.446000000    -2.452000000
H     3.370000000    -1.236000000    -3.599000000
O    -6.537000000    -4.560000000     2.054000000
H    -6.987000000    -4.562000000     1.210000000
H    -5.607000000    -4.519000000     1.830000000
O     3.009000000    -3.654000000    -1.164000000
H     3.041000000    -3.551000000    -2.115000000
H     3.824000000    -3.261000000    -0.852000000
O    -0.234000000     2.368000000    -5.663000000
H    -1.022000000     1.836000000    -5.549000000
H    -0.554000000     3.196000000    -6.021000000
O     4.478000000     2.582000000    -1.903000000
H     4.175000000     1.746000000    -1.550000000
H     4.653000000     2.402000000    -2.827000000
O     7.471000000     0.779000000    -2.460000000
H     7.098000000     0.123000000    -3.050000000
H     8.403000000     0.795000000    -2.678000000
O     7.010000000     2.271000000     3.850000000
H     7.713000000     2.093000000     3.225000000
H     6.272000000     1.749000000     3.535000000
O    -3.900000000    -4.791000000     1.001000000
H    -3.587000000    -5.693000000     0.935000000
H    -3.576000000    -4.366000000     0.207000000
O     4.002000000     2.811000000     2.253000000
H     3.066000000     2.958000000     2.391000000
H     4.047000000     1.972000000     1.795000000
O    -2.462000000     1.968000000     3.875000000
H    -2.264000000     2.778000000     3.407000000
H    -2.024000000     2.067000000     4.721000000
O    -5.875000000    -1.232000000     0.940000000
H    -5.653000000    -0.570000000     1.595000000
H    -6.639000000    -1.681000000     1.303000000
O    -4.960000000    -4.773000000    -3.119000000
H    -4.339000000    -4.897000000    -2.401000000
H    -5.296000000    -3.886000000    -2.995000000
O     1.989000000     0.081000000     5.230000000
H     1.688000000     0.761000000     4.627000000
H     1.187000000    -0.350000000     5.525000000
