161
-2983.77357
C     1.222000000    -0.542000000    -0.775000000
H     2.038000000    -0.771000000    -1.455000000
C    -0.109000000    -0.925000000    -0.848000000
H    -0.455000000    -1.570000000    -1.652000000
C    -1.089000000    -0.500000000     0.021000000
C    -2.499000000    -0.974000000    -0.263000000
H    -2.634000000    -2.056000000    -0.315000000
H    -3.199000000    -0.592000000     0.483000000
H    -2.796000000    -0.773000000    -1.294000000
C    -0.834000000     0.531000000     0.927000000
H    -1.621000000     0.958000000     1.543000000
C     0.434000000     1.036000000     0.974000000
H     0.565000000     1.825000000     1.710000000
C     1.496000000     0.394000000     0.258000000
C     2.842000000     1.064000000     0.257000000
O     2.971000000     1.998000000     1.021000000
O     3.665000000     0.900000000    -0.589000000
O     1.145000000    -1.291000000    -4.131000000
H     1.289000000    -0.948000000    -5.013000000
H     0.270000000    -0.982000000    -3.894000000
O    -2.109000000     4.064000000     1.786000000
H    -1.817000000     4.713000000     2.426000000
H    -2.677000000     3.475000000     2.283000000
O    -4.135000000    -5.813000000     3.272000000
H    -3.262000000    -5.832000000     3.663000000
H    -4.146000000    -5.009000000     2.751000000
O     6.595000000     3.877000000     1.403000000
H     5.693000000     3.960000000     1.712000000
H     6.529000000     3.340000000     0.612000000
O     3.395000000     1.515000000     3.545000000
H     2.476000000     1.518000000     3.812000000
H     3.366000000     1.492000000     2.588000000
O    -5.492000000     2.927000000     1.102000000
H    -5.039000000     2.574000000     1.869000000
H    -4.849000000     3.503000000     0.689000000
O    -6.800000000    -4.488000000    -1.090000000
H    -6.259000000    -5.274000000    -1.025000000
H    -6.190000000    -3.765000000    -0.942000000
O    -3.669000000     1.797000000    -3.712000000
H    -4.086000000     1.965000000    -4.557000000
H    -3.263000000     2.631000000    -3.477000000
O     0.603000000    -3.751000000     0.558000000
H     0.928000000    -3.731000000    -0.342000000
H     1.093000000    -3.061000000     1.005000000
O    -2.919000000    -0.825000000    -6.330000000
H    -2.323000000    -0.581000000    -5.622000000
H    -2.478000000    -0.531000000    -7.127000000
O    -2.353000000    -4.969000000    -0.083000000
H    -2.097000000    -5.670000000    -0.682000000
H    -1.634000000    -4.917000000     0.547000000
O    -7.759000000     0.190000000    -2.989000000
H    -8.374000000    -0.302000000    -2.446000000
H    -6.898000000    -0.148000000    -2.743000000
O     1.191000000    -4.797000000    -4.963000000
H     1.149000000    -4.554000000    -5.888000000
H     0.414000000    -5.337000000    -4.821000000
O     1.512000000    -3.522000000    -2.482000000
H     1.293000000    -2.634000000    -2.766000000
H     1.393000000    -4.060000000    -3.265000000
O    -5.524000000    -2.049000000    -0.914000000
H    -4.771000000    -1.590000000    -1.288000000
H    -6.040000000    -1.360000000    -0.496000000
O    -6.765000000     2.547000000    -2.448000000
H    -6.204000000     2.310000000    -1.710000000
H    -7.022000000     1.709000000    -2.833000000
O     4.099000000     0.775000000     6.055000000
H     3.639000000     0.937000000     5.231000000
H     4.268000000    -0.167000000     6.055000000
O    -3.170000000    -1.951000000     3.042000000
H    -3.506000000    -2.586000000     2.409000000
H    -2.565000000    -1.407000000     2.537000000
O     1.142000000     1.111000000     5.102000000
H     0.881000000     0.801000000     5.969000000
H     0.720000000     1.966000000     5.017000000
O     1.159000000    -1.715000000     3.851000000
H     0.953000000    -0.793000000     4.002000000
H     1.372000000    -1.763000000     2.918000000
O     7.750000000     1.334000000     3.411000000
H     7.749000000     0.772000000     2.636000000
H     6.825000000     1.442000000     3.630000000
O     4.448000000     6.252000000     2.227000000
H     3.800000000     5.638000000     1.879000000
H     4.481000000     6.957000000     1.580000000
O     2.831000000    -2.213000000     1.638000000
H     3.516000000    -2.103000000     2.297000000
H     3.306000000    -2.322000000     0.815000000
O    -5.189000000    -0.511000000    -3.273000000
H    -5.165000000    -0.924000000    -4.136000000
H    -4.685000000     0.295000000    -3.379000000
O    -3.627000000     2.133000000     3.195000000
H    -3.777000000     1.374000000     3.758000000
H    -2.930000000     2.622000000     3.632000000
O     4.210000000    -1.648000000    -0.898000000
H     3.934000000    -0.735000000    -0.814000000
H     5.032000000    -1.605000000    -1.386000000
O     1.903000000     1.691000000    -5.448000000
H     2.771000000     2.017000000    -5.686000000
H     1.877000000     0.802000000    -5.801000000
O     3.979000000     4.613000000    -1.238000000
H     3.595000000     4.638000000    -0.361000000
H     3.587000000     3.843000000    -1.648000000
O    -2.714000000     4.247000000    -3.360000000
H    -2.455000000     3.964000000    -2.484000000
H    -1.936000000     4.100000000    -3.899000000
O     6.027000000     0.177000000     0.779000000
H     6.385000000    -0.312000000     0.039000000
H     5.115000000     0.341000000     0.539000000
O     0.446000000     6.166000000     3.725000000
H     1.372000000     6.288000000     3.934000000
H    -0.019000000     6.525000000     4.481000000
O    -2.079000000     3.396000000    -0.771000000
H    -1.766000000     2.493000000    -0.827000000
H    -2.108000000     3.582000000     0.167000000
O     4.558000000    -0.857000000    -4.527000000
H     3.680000000    -0.976000000    -4.163000000
H     5.025000000    -1.659000000    -4.294000000
O     6.889000000    -1.645000000    -1.667000000
H     6.978000000    -2.218000000    -2.429000000
H     7.626000000    -1.038000000    -1.736000000
O    -3.241000000    -6.256000000    -3.581000000
H    -4.019000000    -6.802000000    -3.694000000
H    -3.560000000    -5.359000000    -3.684000000
O     3.908000000    -4.396000000    -1.357000000
H     3.234000000    -4.497000000    -2.029000000
H     4.003000000    -3.449000000    -1.253000000
O    -4.950000000    -6.586000000    -0.505000000
H    -4.112000000    -6.306000000    -0.875000000
H    -4.718000000    -7.268000000     0.124000000
O    -1.204000000     0.426000000    -4.361000000
H    -0.568000000     1.125000000    -4.209000000
H    -2.019000000     0.757000000    -3.984000000
O     4.807000000     1.913000000    -2.934000000
H     5.274000000     1.178000000    -3.332000000
H     4.412000000     1.545000000    -2.144000000
O     7.143000000     2.579000000    -1.442000000
H     6.357000000     2.420000000    -1.964000000
H     7.647000000     1.768000000    -1.514000000
O     5.610000000     3.535000000     3.875000000
H     5.244000000     2.674000000     3.670000000
H     4.965000000     3.937000000     4.456000000
O     6.860000000    -2.946000000     0.936000000
H     6.789000000    -2.590000000     0.050000000
H     7.766000000    -2.772000000     1.192000000
O    -4.352000000    -3.639000000     1.144000000
H    -5.000000000    -3.248000000     0.559000000
H    -3.686000000    -3.999000000     0.558000000
O     2.716000000     4.695000000     1.064000000
H     1.797000000     4.846000000     1.286000000
H     2.810000000     3.743000000     1.070000000
O    -2.649000000     3.875000000     5.020000000
H    -3.326000000     4.552000000     5.038000000
H    -2.643000000     3.520000000     5.909000000
O    -6.703000000     0.156000000     0.479000000
H    -6.386000000     0.994000000     0.816000000
H    -7.645000000     0.173000000     0.646000000
O    -5.094000000    -4.429000000    -4.188000000
H    -5.043000000    -3.670000000    -3.608000000
H    -5.608000000    -4.125000000    -4.936000000
O    -0.177000000     3.248000000     4.154000000
H     0.204000000     4.114000000     4.011000000
H    -0.928000000     3.408000000     4.725000000
