161
-3042.98190
C     1.025000000    -0.867000000    -0.569000000
H     1.648000000    -1.589000000    -1.090000000
C    -0.342000000    -1.097000000    -0.530000000
H    -0.767000000    -2.003000000    -0.955000000
C    -1.227000000    -0.195000000     0.063000000
C    -2.657000000    -0.636000000     0.214000000
H    -3.426000000     0.137000000     0.278000000
H    -3.053000000    -1.125000000    -0.679000000
H    -2.685000000    -1.311000000     1.072000000
C    -0.712000000     1.009000000     0.545000000
H    -1.353000000     1.751000000     1.014000000
C     0.622000000     1.278000000     0.516000000
H     1.029000000     2.272000000     0.687000000
C     1.526000000     0.299000000    -0.026000000
C     3.030000000     0.616000000    -0.131000000
O     3.473000000     1.717000000     0.043000000
O     3.877000000    -0.254000000    -0.455000000
O     1.488000000    -3.359000000    -3.048000000
H     1.085000000    -3.235000000    -3.907000000
H     2.181000000    -2.699000000    -3.011000000
O    -1.338000000    -5.200000000    -5.219000000
H    -1.614000000    -6.039000000    -5.588000000
H    -1.819000000    -5.131000000    -4.395000000
O     0.805000000     6.237000000    -0.196000000
H    -0.022000000     6.715000000    -0.251000000
H     0.612000000     5.380000000    -0.575000000
O     6.688000000     4.651000000     1.780000000
H     7.041000000     3.914000000     2.278000000
H     5.758000000     4.447000000     1.678000000
O     1.958000000     0.574000000     3.915000000
H     1.103000000     0.160000000     3.796000000
H     1.767000000     1.511000000     3.959000000
O    -6.732000000     3.380000000     1.528000000
H    -6.737000000     4.258000000     1.147000000
H    -6.422000000     3.509000000     2.424000000
O    -4.459000000     0.995000000    -3.127000000
H    -4.626000000     1.404000000    -2.278000000
H    -3.514000000     0.844000000    -3.140000000
O     1.347000000    -4.158000000     0.964000000
H     1.216000000    -4.532000000     0.093000000
H     2.097000000    -3.572000000     0.862000000
O    -2.101000000    -5.303000000     0.034000000
H    -1.494000000    -5.535000000    -0.669000000
H    -1.933000000    -4.375000000     0.200000000
O    -7.600000000    -2.460000000     2.998000000
H    -7.250000000    -1.669000000     2.587000000
H    -8.457000000    -2.196000000     3.333000000
O    -0.025000000    -5.528000000    -1.835000000
H     0.602000000    -4.815000000    -1.960000000
H     0.099000000    -6.092000000    -2.598000000
O    -6.360000000    -0.044000000     1.751000000
H    -5.574000000     0.459000000     1.965000000
H    -6.794000000     0.467000000     1.069000000
O    -5.235000000     2.712000000    -0.692000000
H    -5.825000000     3.029000000    -1.376000000
H    -5.742000000     2.791000000     0.116000000
O    -1.713000000    -2.621000000     5.818000000
H    -2.106000000    -2.596000000     4.945000000
H    -2.173000000    -3.330000000     6.267000000
O     7.536000000    -0.766000000     2.653000000
H     8.128000000    -0.613000000     1.917000000
H     6.898000000    -0.054000000     2.598000000
O     1.240000000     3.074000000     3.810000000
H     0.313000000     2.903000000     3.982000000
H     1.237000000     3.768000000     3.152000000
O     2.359000000     1.846000000    -4.393000000
H     1.925000000     2.635000000    -4.068000000
H     3.115000000     1.733000000    -3.817000000
O    -0.329000000    -4.402000000     3.076000000
H    -0.559000000    -5.267000000     2.737000000
H     0.367000000    -4.094000000     2.496000000
O     4.794000000     4.731000000     4.297000000
H     4.325000000     4.611000000     3.471000000
H     5.537000000     4.130000000     4.240000000
O    -3.480000000     3.611000000     1.069000000
H    -3.742000000     2.793000000     1.491000000
H    -3.844000000     3.553000000     0.186000000
O     3.654000000    -2.624000000     0.668000000
H     3.614000000    -2.362000000     1.588000000
H     3.496000000    -1.815000000     0.182000000
O    -5.554000000    -1.393000000    -3.716000000
H    -5.008000000    -1.694000000    -4.443000000
H    -5.219000000    -0.521000000    -3.509000000
O    -4.144000000     1.421000000     3.111000000
H    -4.653000000     2.162000000     3.439000000
H    -3.299000000     1.496000000     3.555000000
O     6.345000000    -2.299000000    -0.305000000
H     6.321000000    -1.390000000    -0.603000000
H     5.434000000    -2.506000000    -0.092000000
O     1.921000000     4.566000000    -3.141000000
H     1.158000000     4.671000000    -2.573000000
H     2.662000000     4.499000000    -2.538000000
O     3.861000000     3.760000000    -1.381000000
H     4.789000000     3.719000000    -1.613000000
H     3.747000000     3.068000000    -0.728000000
O     6.615000000     3.879000000    -2.339000000
H     7.146000000     4.664000000    -2.205000000
H     7.250000000     3.163000000    -2.375000000
O    -0.597000000    -0.839000000     3.387000000
H    -1.409000000    -1.325000000     3.247000000
H    -0.058000000    -1.049000000     2.624000000
O     5.103000000     0.384000000     2.276000000
H     4.708000000     0.362000000     1.405000000
H     5.111000000     1.311000000     2.512000000
O    -0.521000000     4.213000000    -1.303000000
H    -0.988000000     5.027000000    -1.115000000
H    -1.110000000     3.523000000    -0.997000000
O     4.901000000    -4.232000000    -3.011000000
H     4.001000000    -4.261000000    -2.686000000
H     5.094000000    -3.299000000    -3.098000000
O     3.479000000    -1.964000000     3.388000000
H     4.252000000    -1.405000000     3.463000000
H     2.740000000    -1.370000000     3.520000000
O    -1.824000000     1.427000000     4.336000000
H    -1.392000000     0.641000000     4.002000000
H    -1.299000000     1.686000000     5.093000000
O    -5.343000000    -2.412000000     0.522000000
H    -5.368000000    -1.643000000     1.091000000
H    -4.913000000    -3.086000000     1.049000000
O     5.264000000     1.652000000    -3.729000000
H     5.325000000     1.224000000    -4.583000000
H     5.744000000     2.472000000    -3.838000000
O     3.375000000    -1.603000000    -2.944000000
H     3.946000000    -1.305000000    -3.652000000
H     3.604000000    -1.045000000    -2.201000000
O     6.031000000     0.469000000    -1.507000000
H     5.874000000     0.931000000    -2.331000000
H     5.162000000     0.374000000    -1.117000000
O    -6.933000000    -2.661000000    -1.534000000
H    -6.383000000    -2.483000000    -0.771000000
H    -6.462000000    -2.263000000    -2.266000000
O    -1.802000000     1.007000000    -3.507000000
H    -1.104000000     0.591000000    -3.001000000
H    -1.385000000     1.254000000    -4.332000000
O     8.285000000     1.830000000    -1.870000000
H     7.654000000     1.163000000    -1.600000000
H     9.063000000     1.653000000    -1.342000000
O    -2.637000000    -5.391000000     3.852000000
H    -2.808000000    -5.376000000     4.794000000
H    -1.777000000    -4.982000000     3.759000000
O     7.468000000    -1.473000000    -3.990000000
H     8.370000000    -1.215000000    -4.177000000
H     7.130000000    -0.774000000    -3.430000000
O     7.379000000    -3.590000000     2.012000000
H     7.049000000    -3.321000000     1.154000000
H     7.303000000    -2.805000000     2.554000000
O    -4.070000000    -4.455000000     1.735000000
H    -3.601000000    -4.809000000     2.491000000
H    -3.616000000    -4.823000000     0.977000000
O     4.169000000     3.718000000     1.616000000
H     3.428000000     4.286000000     1.407000000
H     4.048000000     2.950000000     1.057000000
O    -3.689000000     6.309000000     1.751000000
H    -3.686000000     5.394000000     1.470000000
H    -3.741000000     6.266000000     2.706000000
O    -3.397000000    -2.019000000     3.456000000
H    -4.030000000    -2.643000000     3.811000000
H    -3.905000000    -1.222000000     3.303000000
O     1.565000000     4.967000000     2.034000000
H     1.886000000     5.669000000     2.599000000
H     1.433000000     5.386000000     1.183000000
