161
-3032.75724
C     1.280000000    -0.626000000    -0.142000000
H     2.131000000    -1.297000000    -0.231000000
C     0.102000000    -0.912000000    -0.884000000
H     0.053000000    -1.777000000    -1.541000000
C    -1.015000000    -0.142000000    -0.670000000
C    -2.271000000    -0.538000000    -1.469000000
H    -2.999000000    -1.145000000    -0.926000000
H    -2.768000000     0.361000000    -1.840000000
H    -1.940000000    -1.071000000    -2.362000000
C    -0.911000000     0.948000000     0.171000000
H    -1.803000000     1.491000000     0.473000000
C     0.184000000     1.164000000     0.982000000
H     0.076000000     1.798000000     1.859000000
C     1.340000000     0.327000000     0.818000000
C     2.519000000     0.409000000     1.707000000
O     2.445000000     1.009000000     2.731000000
O     3.569000000     0.000000000     1.319000000
O    -3.382000000     5.888000000     1.113000000
H    -3.059000000     5.389000000     0.363000000
H    -3.433000000     6.790000000     0.797000000
O    -3.078000000    -0.917000000     5.524000000
H    -2.537000000    -0.301000000     5.030000000
H    -2.474000000    -1.612000000     5.784000000
O    -6.269000000     1.547000000     2.358000000
H    -7.010000000     2.142000000     2.472000000
H    -5.569000000     1.934000000     2.883000000
O     6.358000000    -2.635000000    -1.094000000
H     6.999000000    -2.127000000    -0.597000000
H     6.166000000    -3.389000000    -0.537000000
O     3.843000000     0.698000000    -1.209000000
H     3.073000000     1.265000000    -1.247000000
H     3.810000000     0.305000000    -0.337000000
O    -5.166000000    -2.631000000     2.155000000
H    -4.388000000    -2.673000000     1.599000000
H    -4.832000000    -2.751000000     3.044000000
O    -1.931000000     4.457000000    -0.740000000
H    -1.355000000     3.693000000    -0.708000000
H    -1.888000000     4.752000000    -1.649000000
O     1.020000000    -1.088000000     7.307000000
H     0.400000000    -1.799000000     7.473000000
H     0.821000000    -0.801000000     6.416000000
O     2.385000000     4.318000000     0.171000000
H     1.880000000     3.576000000    -0.162000000
H     2.658000000     4.793000000    -0.614000000
O     0.516000000    -1.287000000    -5.026000000
H     0.337000000    -0.356000000    -4.896000000
H     0.990000000    -1.326000000    -5.857000000
O    -6.321000000     1.103000000    -0.338000000
H    -5.818000000     1.917000000    -0.361000000
H    -6.183000000     0.761000000     0.546000000
O    -4.865000000     3.400000000    -0.643000000
H    -4.558000000     3.971000000    -1.346000000
H    -4.196000000     3.477000000     0.038000000
O     0.457000000     5.962000000     1.695000000
H    -0.176000000     5.494000000     2.239000000
H     1.033000000     5.278000000     1.355000000
O     4.658000000     1.275000000     4.134000000
H     3.919000000     1.164000000     3.536000000
H     4.450000000     0.710000000     4.879000000
O    -2.232000000    -2.568000000    -5.477000000
H    -1.908000000    -3.406000000    -5.806000000
H    -1.480000000    -2.177000000    -5.033000000
O     2.854000000    -5.847000000     0.846000000
H     2.078000000    -5.976000000     1.392000000
H     3.268000000    -6.709000000     0.810000000
O     4.009000000    -2.697000000     2.051000000
H     3.606000000    -1.925000000     1.653000000
H     4.701000000    -2.948000000     1.440000000
O    -5.331000000    -2.340000000    -5.289000000
H    -4.434000000    -2.236000000    -5.608000000
H    -5.232000000    -2.570000000    -4.365000000
O     3.547000000    -3.415000000    -3.878000000
H     2.929000000    -3.699000000    -3.205000000
H     3.531000000    -2.459000000    -3.829000000
O     6.470000000     0.377000000    -2.396000000
H     5.606000000     0.397000000    -1.984000000
H     6.667000000    -0.555000000    -2.493000000
O    -1.199000000     3.497000000    -3.439000000
H    -2.074000000     3.310000000    -3.779000000
H    -0.931000000     4.295000000    -3.894000000
O     1.155000000    -0.387000000     4.607000000
H     0.889000000    -0.935000000     3.868000000
H     1.799000000     0.217000000     4.238000000
O     8.263000000    -1.162000000     0.483000000
H     9.113000000    -0.736000000     0.368000000
H     7.682000000    -0.461000000     0.777000000
O     1.233000000    -2.425000000     2.774000000
H     0.664000000    -2.975000000     2.235000000
H     2.120000000    -2.666000000     2.510000000
O     3.627000000    -0.442000000     6.984000000
H     2.713000000    -0.702000000     7.097000000
H     3.989000000    -1.090000000     6.381000000
O     6.772000000     2.846000000     3.197000000
H     6.187000000     2.181000000     3.560000000
H     6.512000000     3.657000000     3.633000000
O     1.434000000     2.420000000    -1.513000000
H     0.843000000     1.671000000    -1.591000000
H     1.566000000     2.717000000    -2.413000000
O    -4.897000000    -3.143000000    -2.679000000
H    -4.074000000    -3.365000000    -2.242000000
H    -5.537000000    -3.086000000    -1.969000000
O     6.318000000     0.292000000     1.665000000
H     5.395000000     0.111000000     1.488000000
H     6.375000000     1.247000000     1.690000000
O     0.061000000    -3.828000000    -3.534000000
H     0.769000000    -4.090000000    -2.946000000
H     0.442000000    -3.136000000    -4.074000000
O    -0.260000000    -4.195000000     0.739000000
H    -0.488000000    -5.124000000     0.786000000
H    -0.175000000    -4.016000000    -0.198000000
O    -1.279000000     1.197000000     4.835000000
H    -0.990000000     1.854000000     4.202000000
H    -0.563000000     0.563000000     4.867000000
O     4.109000000    -0.735000000    -4.043000000
H     4.123000000     0.146000000    -4.416000000
H     3.962000000    -0.596000000    -3.107000000
O    -2.987000000    -3.652000000     0.820000000
H    -2.108000000    -3.359000000     1.057000000
H    -2.923000000    -3.874000000    -0.109000000
O    -2.270000000     0.550000000    -6.161000000
H    -1.496000000     0.808000000    -5.660000000
H    -2.346000000    -0.393000000    -6.014000000
O    -2.091000000    -4.022000000    -1.826000000
H    -1.508000000    -3.491000000    -2.369000000
H    -2.132000000    -4.867000000    -2.274000000
O     2.770000000     3.555000000     2.744000000
H     2.585000000     3.851000000     1.853000000
H     2.684000000     2.603000000     2.703000000
O     2.256000000    -4.532000000    -1.574000000
H     2.035000000    -5.397000000    -1.921000000
H     2.705000000    -4.713000000    -0.749000000
O     4.866000000     4.818000000     3.886000000
H     4.633000000     5.247000000     4.709000000
H     4.123000000     4.245000000     3.695000000
O    -3.835000000     4.178000000    -4.781000000
H    -4.219000000     3.312000000    -4.918000000
H    -3.991000000     4.642000000    -5.604000000
O    -0.161000000     3.405000000     3.774000000
H     0.762000000     3.619000000     3.639000000
H    -0.381000000     3.813000000     4.611000000
O     4.764000000    -2.164000000     4.815000000
H     5.669000000    -2.101000000     4.509000000
H     4.320000000    -2.685000000     4.145000000
O    -1.290000000     3.121000000     6.750000000
H    -0.789000000     2.591000000     7.370000000
H    -1.353000000     2.575000000     5.966000000
O     8.228000000    -0.459000000     3.751000000
H     8.254000000    -1.383000000     3.502000000
H     7.535000000    -0.083000000     3.208000000
O    -0.081000000     1.554000000    -4.837000000
H     0.270000000     2.015000000    -5.599000000
H    -0.371000000     2.251000000    -4.248000000
O    -6.926000000    -3.310000000    -0.931000000
H    -7.358000000    -3.870000000    -1.576000000
H    -6.675000000    -3.907000000    -0.225000000
O    -7.026000000    -0.794000000    -2.346000000
H    -6.914000000    -1.706000000    -2.078000000
H    -6.647000000    -0.285000000    -1.629000000
O     2.154000000    -3.445000000     5.485000000
H     1.908000000    -2.577000000     5.165000000
H     1.935000000    -4.037000000     4.765000000
