161
-3054.14267
C     0.435000000    -1.416000000     0.121000000
H     0.717000000    -2.454000000    -0.037000000
C    -0.747000000    -0.966000000    -0.511000000
H    -1.288000000    -1.689000000    -1.116000000
C    -0.933000000     0.383000000    -0.719000000
C    -2.040000000     0.873000000    -1.537000000
H    -2.952000000     0.897000000    -0.937000000
H    -1.894000000     1.895000000    -1.894000000
H    -2.186000000     0.193000000    -2.379000000
C    -0.193000000     1.295000000     0.052000000
H    -0.454000000     2.350000000     0.050000000
C     0.841000000     0.839000000     0.844000000
H     1.390000000     1.585000000     1.413000000
C     1.199000000    -0.513000000     0.835000000
C     2.378000000    -0.988000000     1.737000000
O     2.802000000    -0.245000000     2.604000000
O     2.922000000    -2.031000000     1.474000000
O    -6.806000000     1.224000000     1.160000000
H    -6.297000000     0.592000000     1.669000000
H    -6.152000000     1.705000000     0.653000000
O     7.199000000    -0.532000000     5.152000000
H     6.672000000    -0.705000000     4.372000000
H     7.465000000     0.383000000     5.064000000
O    -3.853000000     5.641000000    -4.688000000
H    -4.627000000     5.111000000    -4.497000000
H    -3.205000000     5.013000000    -5.007000000
O     5.983000000     1.850000000     0.158000000
H     5.717000000     1.864000000    -0.761000000
H     6.905000000     1.593000000     0.136000000
O    -0.975000000     4.220000000    -2.923000000
H    -0.807000000     3.315000000    -3.187000000
H    -0.647000000     4.747000000    -3.651000000
O    -2.427000000    -1.857000000     2.014000000
H    -2.034000000    -1.679000000     1.160000000
H    -3.094000000    -2.521000000     1.838000000
O     5.459000000    -4.464000000     0.255000000
H     5.686000000    -3.763000000    -0.356000000
H     6.242000000    -4.574000000     0.795000000
O     3.570000000    -2.668000000    -1.102000000
H     2.972000000    -2.213000000    -1.695000000
H     3.289000000    -2.400000000    -0.227000000
O    -1.357000000     4.221000000     3.268000000
H    -0.616000000     4.428000000     2.698000000
H    -1.687000000     5.074000000     3.551000000
O    -4.167000000     3.652000000     1.682000000
H    -4.116000000     2.740000000     1.967000000
H    -3.510000000     4.105000000     2.211000000
O     1.019000000     4.891000000     1.950000000
H     0.638000000     5.010000000     1.080000000
H     1.958000000     5.028000000     1.821000000
O     0.160000000     4.723000000    -0.628000000
H    -0.208000000     4.545000000    -1.494000000
H     1.068000000     4.428000000    -0.688000000
O    -2.965000000    -1.255000000    -5.430000000
H    -3.114000000    -1.659000000    -6.285000000
H    -3.422000000    -0.416000000    -5.479000000
O     0.682000000    -6.451000000    -1.005000000
H     0.722000000    -7.210000000    -0.423000000
H     0.762000000    -5.697000000    -0.422000000
O    -1.402000000     1.503000000     4.365000000
H    -0.475000000     1.295000000     4.477000000
H    -1.407000000     2.300000000     3.836000000
O     5.356000000     2.627000000     4.911000000
H     6.080000000     3.249000000     4.829000000
H     5.372000000     2.132000000     4.092000000
O     4.717000000    -1.464000000     3.859000000
H     4.036000000    -0.856000000     3.572000000
H     4.820000000    -2.072000000     3.126000000
O     3.884000000    -4.103000000     2.452000000
H     3.460000000    -3.251000000     2.346000000
H     4.252000000    -4.296000000     1.589000000
O    -3.679000000    -2.544000000    -3.257000000
H    -3.448000000    -2.100000000    -4.074000000
H    -3.714000000    -3.471000000    -3.490000000
O    -4.372000000    -4.618000000     1.189000000
H    -3.971000000    -5.311000000     1.715000000
H    -3.851000000    -4.595000000     0.387000000
O    -2.414000000     6.676000000     2.314000000
H    -1.853000000     6.610000000     1.541000000
H    -2.281000000     7.570000000     2.630000000
O    -0.810000000     7.088000000     0.135000000
H    -0.586000000     6.231000000    -0.228000000
H    -1.109000000     7.596000000    -0.619000000
O    -0.162000000     1.998000000    -4.730000000
H    -0.434000000     1.099000000    -4.915000000
H    -0.479000000     2.503000000    -5.478000000
O     5.996000000    -2.102000000    -1.848000000
H     5.111000000    -2.392000000    -1.626000000
H     6.333000000    -1.719000000    -1.038000000
O    -3.192000000     5.305000000    -1.812000000
H    -2.298000000     4.977000000    -1.714000000
H    -3.330000000     5.344000000    -2.759000000
O    -5.698000000     1.215000000    -2.773000000
H    -5.640000000     1.549000000    -1.878000000
H    -4.925000000     0.658000000    -2.871000000
O    -0.963000000    -2.404000000     4.501000000
H    -0.640000000    -3.301000000     4.406000000
H    -1.393000000    -2.215000000     3.667000000
O     7.599000000    -2.903000000     1.595000000
H     6.836000000    -2.399000000     1.310000000
H     7.821000000    -2.539000000     2.452000000
O    -0.486000000    -5.085000000     3.507000000
H     0.044000000    -5.442000000     4.220000000
H    -1.308000000    -5.571000000     3.552000000
O     5.348000000    -1.174000000     1.045000000
H     4.459000000    -1.510000000     1.165000000
H     5.243000000    -0.223000000     1.021000000
O     2.172000000     1.942000000    -3.143000000
H     1.568000000     1.973000000    -3.884000000
H     1.924000000     2.691000000    -2.601000000
O     3.543000000    -3.719000000     5.239000000
H     4.006000000    -2.888000000     5.136000000
H     3.649000000    -4.158000000     4.396000000
O    -1.068000000    -4.197000000    -4.200000000
H    -1.897000000    -4.663000000    -4.311000000
H    -1.155000000    -3.751000000    -3.358000000
O     0.474000000    -4.624000000     1.071000000
H     1.331000000    -4.317000000     1.365000000
H    -0.042000000    -4.699000000     1.875000000
O    -3.602000000     0.916000000     2.556000000
H    -3.499000000     0.035000000     2.196000000
H    -2.823000000     1.047000000     3.096000000
O     1.475000000     1.310000000     4.522000000
H     1.985000000     0.718000000     3.969000000
H     1.828000000     2.179000000     4.331000000
O     3.173000000    -6.699000000     2.518000000
H     3.546000000    -6.896000000     3.378000000
H     3.169000000    -5.742000000     2.474000000
O    -2.238000000    -4.921000000    -0.491000000
H    -1.341000000    -4.944000000    -0.160000000
H    -2.315000000    -5.709000000    -1.030000000
O     2.068000000    -0.987000000    -2.560000000
H     2.017000000    -0.059000000    -2.332000000
H     1.165000000    -1.233000000    -2.763000000
O     4.356000000     2.265000000     2.156000000
H     5.011000000     1.999000000     1.510000000
H     3.767000000     1.513000000     2.221000000
O    -4.249000000    -1.902000000    -0.635000000
H    -4.114000000    -1.947000000    -1.581000000
H    -4.322000000    -2.816000000    -0.360000000
O    -4.630000000     3.312000000    -1.018000000
H    -4.077000000     4.046000000    -1.283000000
H    -4.749000000     3.429000000    -0.076000000
O    -5.755000000    -1.317000000     1.523000000
H    -5.241000000    -1.536000000     0.746000000
H    -6.665000000    -1.427000000     1.247000000
O     2.741000000     4.277000000    -1.727000000
H     3.001000000     4.918000000    -2.389000000
H     3.388000000     4.379000000    -1.029000000
O    -5.535000000     3.374000000    -4.235000000
H    -6.491000000     3.366000000    -4.209000000
H    -5.274000000     2.620000000    -3.706000000
O    -3.907000000     1.164000000    -5.548000000
H    -4.795000000     1.003000000    -5.867000000
H    -3.906000000     2.088000000    -5.300000000
O    -0.235000000    -0.886000000    -4.396000000
H     0.343000000    -1.188000000    -5.096000000
H    -1.117000000    -1.078000000    -4.715000000
O     3.593000000     5.123000000     0.978000000
H     4.391000000     5.582000000     0.718000000
H     3.870000000     4.216000000     1.109000000
