161
-3024.07059
C     0.762000000    -0.830000000    -0.992000000
H     1.230000000    -1.403000000    -1.788000000
C    -0.273000000     0.111000000    -1.243000000
H    -0.661000000     0.248000000    -2.249000000
C    -0.931000000     0.789000000    -0.215000000
C    -2.064000000     1.713000000    -0.514000000
H    -3.031000000     1.243000000    -0.323000000
H    -1.970000000     2.618000000     0.090000000
H    -2.005000000     2.007000000    -1.564000000
C    -0.515000000     0.647000000     1.059000000
H    -1.050000000     1.146000000     1.863000000
C     0.604000000    -0.163000000     1.330000000
H     0.897000000    -0.442000000     2.339000000
C     1.181000000    -0.966000000     0.325000000
C     2.285000000    -1.962000000     0.549000000
O     2.696000000    -2.220000000     1.685000000
O     2.839000000    -2.530000000    -0.357000000
O     5.311000000     0.916000000     0.788000000
H     5.142000000     1.030000000    -0.148000000
H     6.213000000     1.215000000     0.907000000
O    -1.962000000     4.700000000    -2.737000000
H    -2.002000000     3.892000000    -3.249000000
H    -1.334000000     5.249000000    -3.206000000
O    -2.759000000    -1.263000000     2.463000000
H    -2.119000000    -0.748000000     2.953000000
H    -2.726000000    -0.905000000     1.576000000
O     4.120000000    -4.768000000    -0.405000000
H     3.642000000    -3.940000000    -0.347000000
H     4.529000000    -4.748000000    -1.270000000
O    -2.050000000     0.426000000    -5.877000000
H    -1.461000000     0.680000000    -6.588000000
H    -2.810000000     0.047000000    -6.320000000
O     4.573000000    -0.963000000    -2.358000000
H     3.993000000    -0.596000000    -3.026000000
H     4.035000000    -1.611000000    -1.903000000
O    -1.105000000     0.618000000     4.178000000
H    -1.286000000     0.279000000     5.055000000
H    -0.423000000     1.276000000     4.312000000
O    -2.027000000     4.727000000     2.509000000
H    -1.243000000     5.211000000     2.251000000
H    -2.317000000     4.295000000     1.706000000
O    -2.145000000     6.181000000    -0.331000000
H    -1.407000000     6.120000000     0.276000000
H    -1.899000000     5.617000000    -1.064000000
O    -4.668000000     0.965000000    -3.231000000
H    -4.369000000     0.786000000    -4.123000000
H    -5.586000000     1.217000000    -3.334000000
O     3.497000000    -3.430000000    -4.944000000
H     2.601000000    -3.411000000    -5.279000000
H     3.913000000    -2.657000000    -5.326000000
O    -1.455000000    -1.005000000     6.365000000
H    -0.617000000    -0.825000000     6.792000000
H    -1.400000000    -1.926000000     6.109000000
O     3.910000000     2.245000000     4.798000000
H     4.215000000     2.905000000     4.176000000
H     3.974000000     1.418000000     4.321000000
O     5.893000000    -1.413000000     4.156000000
H     5.568000000    -2.209000000     4.577000000
H     5.539000000    -1.450000000     3.268000000
O     3.934000000    -4.471000000     2.232000000
H     3.335000000    -3.736000000     2.102000000
H     4.240000000    -4.689000000     1.351000000
O    -3.184000000    -1.151000000    -1.958000000
H    -3.524000000    -0.263000000    -2.066000000
H    -3.309000000    -1.561000000    -2.814000000
O     1.568000000    -6.115000000    -3.049000000
H     2.075000000    -5.462000000    -2.568000000
H     1.531000000    -6.870000000    -2.462000000
O    -1.522000000     2.907000000    -4.650000000
H    -1.689000000     2.035000000    -5.008000000
H    -1.918000000     3.505000000    -5.283000000
O    -3.471000000     4.474000000     4.705000000
H    -2.795000000     4.632000000     4.047000000
H    -3.398000000     5.215000000     5.306000000
O    -4.622000000     5.950000000     0.566000000
H    -3.687000000     6.083000000     0.411000000
H    -4.906000000     5.383000000    -0.151000000
O     0.887000000     2.520000000    -3.448000000
H    -0.006000000     2.750000000    -3.706000000
H     1.389000000     3.325000000    -3.579000000
O     7.368000000    -1.261000000    -2.096000000
H     6.624000000    -1.308000000    -1.495000000
H     8.131000000    -1.171000000    -1.526000000
O    -4.948000000     3.332000000    -1.739000000
H    -5.204000000     3.892000000    -2.472000000
H    -4.450000000     2.621000000    -2.143000000
O    -7.941000000     0.419000000    -0.496000000
H    -7.280000000     0.032000000     0.078000000
H    -7.674000000     1.333000000    -0.586000000
O    -2.405000000    -3.558000000     3.722000000
H    -3.233000000    -3.777000000     4.150000000
H    -2.575000000    -2.723000000     3.286000000
O     7.390000000    -3.974000000     1.468000000
H     6.753000000    -3.322000000     1.175000000
H     7.267000000    -4.018000000     2.417000000
O     5.621000000    -1.857000000     0.695000000
H     4.675000000    -1.997000000     0.642000000
H     5.714000000    -0.923000000     0.886000000
O     2.224000000     1.977000000    -1.327000000
H     1.674000000     2.140000000    -2.094000000
H     1.760000000     1.296000000    -0.840000000
O     3.497000000    -5.102000000     4.881000000
H     3.248000000    -4.181000000     4.958000000
H     3.801000000    -5.193000000     3.978000000
O    -0.470000000    -3.219000000    -2.703000000
H    -0.449000000    -3.814000000    -1.954000000
H    -0.911000000    -2.436000000    -2.375000000
O    -0.528000000    -5.175000000    -0.520000000
H     0.327000000    -5.443000000    -0.184000000
H    -1.091000000    -5.143000000     0.253000000
O    -3.776000000     0.562000000     4.970000000
H    -4.205000000     0.234000000     4.180000000
H    -2.846000000     0.585000000     4.746000000
O     1.789000000    -2.997000000     4.148000000
H     1.073000000    -3.557000000     3.848000000
H     2.207000000    -2.690000000     3.344000000
O     5.218000000    -4.673000000    -3.137000000
H     5.016000000    -5.570000000    -3.402000000
H     4.629000000    -4.130000000    -3.662000000
O    -7.353000000     3.048000000    -0.409000000
H    -7.672000000     3.851000000    -0.820000000
H    -6.509000000     2.884000000    -0.828000000
O     2.821000000    -0.011000000    -4.146000000
H     2.196000000     0.680000000    -3.926000000
H     2.349000000    -0.574000000    -4.759000000
O     3.458000000     0.243000000     2.666000000
H     3.979000000     0.572000000     1.933000000
H     3.318000000    -0.682000000     2.463000000
O     0.888000000    -4.687000000    -5.132000000
H     1.099000000    -5.179000000    -4.339000000
H     0.139000000    -4.144000000    -4.886000000
O     1.400000000    -2.253000000     6.963000000
H     1.371000000    -3.153000000     7.289000000
H     1.590000000    -2.342000000     6.029000000
O    -3.873000000    -2.780000000     0.030000000
H    -4.067000000    -3.639000000    -0.344000000
H    -3.519000000    -2.274000000    -0.701000000
O     1.860000000    -5.875000000     0.825000000
H     2.136000000    -6.518000000     1.479000000
H     2.663000000    -5.405000000     0.598000000
O    -4.587000000     1.381000000     1.701000000
H    -4.634000000     2.006000000     0.977000000
H    -4.987000000     1.840000000     2.439000000
O    -5.932000000    -0.753000000     0.572000000
H    -5.296000000    -1.462000000     0.479000000
H    -5.489000000    -0.104000000     1.118000000
O     4.359000000    -7.431000000     0.837000000
H     4.739000000    -6.713000000     0.331000000
H     4.762000000    -7.353000000     1.702000000
O     0.163000000     5.794000000     1.374000000
H     0.783000000     6.261000000     0.814000000
H     0.685000000     5.505000000     2.122000000
O     1.093000000     2.187000000     5.226000000
H     0.948000000     2.119000000     6.170000000
H     1.971000000     2.560000000     5.145000000
O     1.544000000    -1.065000000    -6.184000000
H     1.342000000    -1.218000000    -7.107000000
H     0.738000000    -1.295000000    -5.721000000
O     1.953000000     4.621000000     3.203000000
H     2.894000000     4.550000000     3.046000000
H     1.794000000     4.064000000     3.965000000
