161
-3053.41520
C     0.661000000    -0.520000000    -1.217000000
H     1.074000000    -0.893000000    -2.151000000
C    -0.400000000     0.403000000    -1.226000000
H    -0.865000000     0.767000000    -2.139000000
C    -0.935000000     0.798000000     0.059000000
C    -2.101000000     1.723000000     0.012000000
H    -2.758000000     1.620000000     0.878000000
H    -1.741000000     2.753000000    -0.023000000
H    -2.709000000     1.546000000    -0.877000000
C    -0.356000000     0.380000000     1.221000000
H    -0.707000000     0.686000000     2.203000000
C     0.697000000    -0.514000000     1.213000000
H     1.102000000    -0.755000000     2.193000000
C     1.252000000    -0.988000000    -0.006000000
C     2.329000000    -2.026000000    -0.046000000
O     2.849000000    -2.406000000     0.995000000
O     2.611000000    -2.581000000    -1.090000000
O     2.999000000     0.898000000     3.129000000
H     2.900000000     1.514000000     2.403000000
H     3.861000000     1.098000000     3.496000000
O    -0.905000000    -4.047000000     3.057000000
H    -1.701000000    -4.010000000     2.527000000
H    -0.297000000    -4.574000000     2.540000000
O     0.579000000     4.257000000     3.982000000
H     0.172000000     4.581000000     4.785000000
H     1.016000000     5.023000000     3.609000000
O     4.002000000    -5.086000000    -3.282000000
H     4.223000000    -5.271000000    -2.370000000
H     4.844000000    -4.906000000    -3.701000000
O     7.509000000    -0.362000000     0.421000000
H     7.141000000    -0.585000000     1.276000000
H     7.005000000    -0.886000000    -0.201000000
O    -2.429000000    -0.222000000    -4.569000000
H    -1.909000000    -0.840000000    -4.055000000
H    -3.125000000    -0.756000000    -4.952000000
O    -1.588000000     6.884000000    -2.794000000
H    -0.809000000     7.419000000    -2.642000000
H    -1.245000000     6.016000000    -3.006000000
O     5.573000000    -2.717000000    -5.553000000
H     5.222000000    -2.443000000    -4.706000000
H     6.506000000    -2.508000000    -5.505000000
O    -1.662000000    -1.265000000     4.376000000
H    -1.486000000    -2.088000000     3.919000000
H    -0.798000000    -0.949000000     4.641000000
O    -5.991000000     2.654000000     2.084000000
H    -6.155000000     1.712000000     2.133000000
H    -5.592000000     2.783000000     1.223000000
O     5.326000000     0.856000000    -3.553000000
H     6.103000000     1.216000000    -3.981000000
H     4.631000000     0.946000000    -4.204000000
O    -3.148000000     2.298000000    -4.417000000
H    -3.801000000     2.505000000    -5.085000000
H    -3.017000000     1.353000000    -4.494000000
O    -5.018000000     3.455000000    -2.615000000
H    -4.432000000     3.745000000    -1.917000000
H    -4.435000000     3.234000000    -3.342000000
O     2.825000000    -7.398000000    -2.104000000
H     3.324000000    -6.581000000    -2.115000000
H     2.901000000    -7.738000000    -2.996000000
O    -1.970000000     3.220000000     3.483000000
H    -1.860000000     2.323000000     3.798000000
H    -1.115000000     3.628000000     3.617000000
O     6.136000000    -3.045000000     4.379000000
H     5.388000000    -2.762000000     3.852000000
H     6.773000000    -2.336000000     4.290000000
O    -4.306000000    -2.423000000    -2.066000000
H    -5.116000000    -2.068000000    -1.700000000
H    -3.672000000    -2.361000000    -1.352000000
O     1.823000000    -3.692000000    -3.445000000
H     2.594000000    -4.253000000    -3.529000000
H     1.900000000    -3.308000000    -2.571000000
O     2.863000000     1.913000000     0.362000000
H     3.540000000     1.369000000    -0.040000000
H     2.179000000     1.975000000    -0.305000000
O    -1.317000000     3.890000000    -3.287000000
H    -1.966000000     3.222000000    -3.508000000
H    -0.818000000     4.015000000    -4.094000000
O    -0.107000000    -5.287000000    -4.304000000
H    -0.120000000    -5.693000000    -5.170000000
H     0.670000000    -4.729000000    -4.312000000
O    -6.029000000    -0.099000000    -3.227000000
H    -5.855000000     0.221000000    -4.112000000
H    -6.052000000     0.692000000    -2.687000000
O     7.795000000    -3.891000000    -0.737000000
H     7.102000000    -3.255000000    -0.914000000
H     8.429000000    -3.756000000    -1.441000000
O     5.828000000    -2.245000000    -0.983000000
H     5.111000000    -2.438000000    -0.378000000
H     5.394000000    -2.041000000    -1.811000000
O     0.659000000     4.299000000     0.725000000
H     1.400000000     3.712000000     0.576000000
H     0.377000000     4.107000000     1.620000000
O     2.789000000    -5.225000000     4.626000000
H     2.707000000    -4.909000000     3.726000000
H     3.370000000    -5.984000000     4.562000000
O    -2.490000000    -2.169000000     0.007000000
H    -1.784000000    -1.550000000     0.196000000
H    -2.057000000    -2.898000000    -0.437000000
O    -4.601000000    -1.092000000     3.205000000
H    -4.669000000    -1.873000000     2.656000000
H    -3.697000000    -1.097000000     3.518000000
O     0.215000000    -5.935000000     0.872000000
H     0.334000000    -6.314000000     0.001000000
H    -0.401000000    -6.524000000     1.308000000
O     2.480000000    -4.806000000     1.863000000
H     1.562000000    -4.826000000     1.593000000
H     2.816000000    -3.982000000     1.511000000
O     3.818000000    -4.934000000    -0.737000000
H     3.344000000    -4.102000000    -0.721000000
H     3.411000000    -5.453000000    -0.043000000
O     3.752000000    -0.987000000     5.998000000
H     3.788000000    -0.951000000     5.042000000
H     3.395000000    -1.854000000     6.192000000
O     1.108000000    -1.547000000    -5.826000000
H     1.760000000    -1.931000000    -5.240000000
H     0.954000000    -2.222000000    -6.487000000
O    -0.142000000     0.951000000    -6.238000000
H     0.379000000     0.163000000    -6.391000000
H    -0.972000000     0.626000000    -5.891000000
O     0.777000000     0.373000000     5.354000000
H     1.453000000     0.091000000     4.737000000
H     0.995000000     1.285000000     5.547000000
O     1.929000000     1.168000000    -4.212000000
H     1.161000000     0.921000000    -4.726000000
H     2.662000000     1.087000000    -4.822000000
O    -1.599000000    -4.417000000    -1.701000000
H    -0.908000000    -4.874000000    -2.181000000
H    -2.253000000    -5.092000000    -1.520000000
O    -6.724000000    -0.098000000     1.538000000
H    -7.456000000    -0.417000000     1.010000000
H    -6.324000000    -0.890000000     1.896000000
O    -4.689000000    -3.182000000     1.391000000
H    -4.347000000    -4.073000000     1.461000000
H    -3.964000000    -2.675000000     1.023000000
O     4.054000000    -1.655000000     3.014000000
H     3.606000000    -0.809000000     3.010000000
H     3.712000000    -2.111000000     2.245000000
O    -6.636000000     5.248000000    -1.553000000
H    -6.397000000     5.538000000    -0.673000000
H    -6.073000000     4.492000000    -1.717000000
O    -3.467000000     4.747000000    -0.836000000
H    -3.302000000     5.074000000     0.048000000
H    -2.671000000     4.962000000    -1.323000000
O    -4.476000000     3.497000000     4.422000000
H    -3.585000000     3.475000000     4.072000000
H    -5.029000000     3.250000000     3.681000000
O     1.397000000     3.010000000    -1.902000000
H     0.479000000     3.188000000    -1.698000000
H     1.366000000     2.473000000    -2.694000000
O    -1.086000000    -2.412000000    -3.656000000
H    -0.131000000    -2.485000000    -3.656000000
H    -1.378000000    -3.087000000    -3.044000000
O    -3.145000000     5.225000000     1.907000000
H    -2.435000000     5.864000000     1.971000000
H    -2.761000000     4.409000000     2.228000000
O     4.585000000    -1.702000000    -3.330000000
H     3.648000000    -1.729000000    -3.139000000
H     4.778000000    -0.772000000    -3.451000000
O     1.320000000     6.090000000    -1.523000000
H     1.325000000     5.363000000    -2.146000000
H     1.376000000     5.671000000    -0.665000000
