161
-3075.80013
C     1.059000000    -0.016000000     0.972000000
H     1.747000000    -0.004000000     1.813000000
C    -0.085000000     0.795000000     1.037000000
H    -0.199000000     1.457000000     1.891000000
C    -0.978000000     0.753000000     0.034000000
C    -2.120000000     1.717000000     0.015000000
H    -2.974000000     1.269000000     0.527000000
H    -1.757000000     2.668000000     0.409000000
H    -2.457000000     1.879000000    -1.011000000
C    -0.834000000    -0.167000000    -0.977000000
H    -1.550000000    -0.231000000    -1.793000000
C     0.234000000    -1.063000000    -1.033000000
H     0.292000000    -1.780000000    -1.848000000
C     1.221000000    -1.000000000    -0.026000000
C     2.409000000    -1.893000000    -0.014000000
O     2.968000000    -2.217000000    -1.027000000
O     3.025000000    -2.167000000     1.025000000
O     0.818000000    -5.604000000    -3.100000000
H     0.985000000    -6.056000000    -3.927000000
H     1.657000000    -5.203000000    -2.872000000
O     4.240000000     2.362000000     1.303000000
H     4.385000000     2.345000000     0.357000000
H     4.245000000     3.293000000     1.528000000
O     4.276000000    -0.468000000     5.101000000
H     5.182000000    -0.202000000     4.941000000
H     4.068000000    -1.057000000     4.376000000
O     3.220000000    -1.323000000    -3.421000000
H     3.038000000    -1.641000000    -2.537000000
H     3.542000000    -2.092000000    -3.891000000
O     0.846000000    -1.616000000     6.404000000
H     1.144000000    -2.308000000     5.813000000
H     0.334000000    -1.029000000     5.847000000
O    -5.012000000    -1.323000000     0.011000000
H    -4.144000000    -1.534000000    -0.333000000
H    -5.588000000    -1.366000000    -0.751000000
O     7.129000000    -1.451000000     2.589000000
H     6.286000000    -1.043000000     2.392000000
H     7.701000000    -1.177000000     1.872000000
O     4.690000000    -4.364000000     0.264000000
H     5.524000000    -4.006000000    -0.041000000
H     4.113000000    -3.603000000     0.328000000
O    -1.753000000    -4.566000000    -4.051000000
H    -2.274000000    -3.815000000    -3.767000000
H    -1.099000000    -4.679000000    -3.361000000
O    -2.282000000     1.603000000    -4.530000000
H    -2.435000000     2.064000000    -5.354000000
H    -1.497000000     2.015000000    -4.167000000
O    -4.252000000     0.242000000    -3.666000000
H    -4.817000000     0.260000000    -4.438000000
H    -3.488000000     0.763000000    -3.916000000
O     4.777000000    -6.372000000     2.278000000
H     5.078000000    -5.955000000     1.471000000
H     5.432000000    -7.046000000     2.458000000
O    -6.098000000     1.064000000     1.248000000
H    -5.969000000     1.661000000     0.510000000
H    -5.875000000     0.201000000     0.900000000
O     5.520000000    -1.262000000    -0.766000000
H     5.431000000    -0.391000000    -0.380000000
H     4.754000000    -1.742000000    -0.452000000
O     1.834000000     3.239000000     2.927000000
H     2.169000000     3.016000000     3.795000000
H     2.152000000     2.536000000     2.360000000
O     0.545000000     2.909000000    -4.805000000
H     0.825000000     1.994000000    -4.824000000
H     0.667000000     3.216000000    -5.704000000
O    -5.689000000     2.078000000    -1.633000000
H    -5.159000000     1.622000000    -2.287000000
H    -6.583000000     1.783000000    -1.801000000
O    -3.621000000     4.112000000     1.846000000
H    -2.829000000     3.773000000     2.263000000
H    -3.479000000     5.057000000     1.795000000
O     1.659000000     5.501000000     1.502000000
H     1.812000000     4.734000000     2.055000000
H     2.495000000     5.967000000     1.504000000
O     0.390000000     4.825000000    -0.967000000
H     0.933000000     5.207000000    -0.278000000
H     0.459000000     3.880000000    -0.830000000
O    -4.692000000     4.326000000    -0.785000000
H    -5.140000000     3.547000000    -1.114000000
H    -4.547000000     4.145000000     0.144000000
O    -1.482000000     0.515000000     6.800000000
H    -1.917000000     1.363000000     6.887000000
H    -1.971000000     0.065000000     6.111000000
O    -3.336000000     2.898000000     4.568000000
H    -2.899000000     3.049000000     5.407000000
H    -2.989000000     3.579000000     3.992000000
O     4.209000000    -3.881000000     2.983000000
H     3.970000000    -3.458000000     2.159000000
H     4.596000000    -4.716000000     2.720000000
O    -1.107000000     4.715000000    -3.782000000
H    -0.459000000     4.355000000    -3.176000000
H    -1.012000000     4.187000000    -4.575000000
O    -3.548000000    -2.315000000    -3.154000000
H    -3.748000000    -1.405000000    -3.372000000
H    -4.398000000    -2.703000000    -2.945000000
O    -0.956000000     7.149000000    -0.923000000
H    -0.620000000     7.583000000    -1.708000000
H    -0.515000000     6.299000000    -0.913000000
O     3.231000000    -4.703000000    -2.044000000
H     3.939000000    -5.000000000    -1.472000000
H     2.974000000    -3.854000000    -1.686000000
O     2.899000000     2.230000000     5.135000000
H     3.623000000     1.604000000     5.132000000
H     2.323000000     1.926000000     5.837000000
O     2.178000000     2.010000000    -2.233000000
H     1.580000000     1.303000000    -1.992000000
H     1.955000000     2.214000000    -3.142000000
O    -0.995000000    -5.914000000    -0.859000000
H    -1.903000000    -5.986000000    -1.153000000
H    -0.475000000    -6.034000000    -1.653000000
O     4.792000000    -3.858000000    -4.436000000
H     4.177000000    -4.265000000    -3.826000000
H     4.343000000    -3.882000000    -5.281000000
O     0.324000000    -3.873000000     1.878000000
H    -0.112000000    -4.567000000     1.384000000
H     1.169000000    -3.763000000     1.442000000
O     7.960000000    -4.052000000     2.696000000
H     7.581000000    -3.184000000     2.556000000
H     8.573000000    -4.165000000     1.969000000
O     1.429000000     0.245000000    -4.880000000
H     0.733000000    -0.360000000    -5.139000000
H     1.958000000    -0.253000000    -4.257000000
O    -4.670000000     0.627000000     3.748000000
H    -4.422000000     1.502000000     4.047000000
H    -5.149000000     0.780000000     2.934000000
O    -4.922000000     5.217000000    -3.545000000
H    -4.060000000     5.476000000    -3.869000000
H    -4.755000000     4.874000000    -2.667000000
O    -6.170000000     3.335000000     3.127000000
H    -6.751000000     2.861000000     2.531000000
H    -5.292000000     3.181000000     2.778000000
O    -2.935000000    -0.800000000     5.008000000
H    -2.305000000    -0.982000000     4.310000000
H    -3.586000000    -0.230000000     4.599000000
O     7.464000000    -3.548000000    -0.436000000
H     7.417000000    -3.694000000    -1.381000000
H     7.311000000    -2.610000000    -0.330000000
O     6.716000000    -2.263000000    -2.963000000
H     6.091000000    -2.653000000    -3.575000000
H     6.180000000    -1.980000000    -2.222000000
O    -1.063000000     4.385000000     2.999000000
H    -0.170000000     4.149000000     3.251000000
H    -1.011000000     5.315000000     2.778000000
O    -3.515000000    -3.399000000     1.578000000
H    -2.626000000    -3.693000000     1.382000000
H    -3.441000000    -2.448000000     1.660000000
O     4.948000000     1.739000000    -1.376000000
H     5.411000000     1.137000000    -1.959000000
H     4.165000000     1.991000000    -1.865000000
O    -2.703000000     6.534000000     1.103000000
H    -2.112000000     6.571000000     0.351000000
H    -2.512000000     7.331000000     1.597000000
O     1.735000000    -3.531000000     4.322000000
H     1.221000000    -3.510000000     3.515000000
H     2.590000000    -3.866000000     4.052000000
O    -1.436000000    -1.709000000     2.449000000
H    -0.698000000    -2.291000000     2.630000000
H    -1.102000000    -1.093000000     1.797000000
O     4.722000000    -0.435000000     2.071000000
H     4.503000000     0.497000000     2.082000000
H     3.911000000    -0.868000000     1.805000000
