161
-3041.47319
C     0.684000000    -0.003000000    -1.287000000
H     1.110000000    -0.052000000    -2.286000000
C    -0.514000000     0.605000000    -1.080000000
H    -0.866000000     1.204000000    -1.916000000
C    -1.091000000     0.642000000     0.204000000
C    -2.393000000     1.252000000     0.513000000
H    -2.789000000     0.914000000     1.473000000
H    -2.294000000     2.340000000     0.515000000
H    -3.160000000     1.014000000    -0.227000000
C    -0.439000000    -0.076000000     1.225000000
H    -0.821000000     0.064000000     2.233000000
C     0.732000000    -0.820000000     0.931000000
H     1.217000000    -1.452000000     1.670000000
C     1.363000000    -0.785000000    -0.331000000
C     2.735000000    -1.377000000    -0.494000000
O     3.237000000    -2.002000000     0.424000000
O     3.283000000    -1.472000000    -1.565000000
O    -3.948000000    -1.936000000    -0.742000000
H    -4.426000000    -1.533000000    -0.018000000
H    -4.468000000    -1.727000000    -1.518000000
O     1.275000000     0.990000000     4.506000000
H     0.346000000     0.972000000     4.737000000
H     1.666000000     1.599000000     5.133000000
O    -2.228000000     5.064000000     3.778000000
H    -2.264000000     5.320000000     4.699000000
H    -1.309000000     4.841000000     3.627000000
O     3.742000000     0.102000000    -5.775000000
H     2.928000000    -0.324000000    -6.044000000
H     3.721000000     0.074000000    -4.818000000
O    -3.278000000     1.521000000    -5.686000000
H    -3.153000000     0.795000000    -6.297000000
H    -2.411000000     1.918000000    -5.606000000
O     2.233000000    -2.918000000     5.705000000
H     2.335000000    -3.865000000     5.794000000
H     2.249000000    -2.763000000     4.761000000
O    -1.580000000    -0.057000000     5.549000000
H    -1.929000000    -0.493000000     4.771000000
H    -2.044000000    -0.466000000     6.280000000
O     3.868000000     0.829000000    -3.050000000
H     3.774000000     1.450000000    -2.328000000
H     3.816000000    -0.031000000    -2.633000000
O    -1.856000000     4.214000000    -2.408000000
H    -2.237000000     4.037000000    -3.268000000
H    -2.591000000     4.132000000    -1.799000000
O    -3.221000000     2.590000000     3.417000000
H    -3.241000000     2.288000000     2.509000000
H    -2.678000000     3.378000000     3.395000000
O    -1.260000000    -2.461000000    -1.457000000
H    -0.854000000    -2.168000000    -0.642000000
H    -2.085000000    -1.978000000    -1.501000000
O    -5.581000000    -0.675000000     0.946000000
H    -5.568000000    -0.877000000     1.882000000
H    -6.089000000    -1.385000000     0.555000000
O     4.491000000    -4.369000000     4.511000000
H     4.826000000    -3.751000000     3.861000000
H     4.921000000    -4.115000000     5.327000000
O     5.029000000    -3.878000000    -1.032000000
H     4.437000000    -3.289000000    -0.565000000
H     4.913000000    -3.652000000    -1.955000000
O     4.323000000    -6.271000000     1.931000000
H     4.251000000    -5.551000000     1.305000000
H     3.748000000    -6.952000000     1.581000000
O     2.696000000     1.915000000    -0.569000000
H     1.850000000     1.676000000    -0.192000000
H     3.338000000     1.624000000     0.078000000
O    -5.277000000     2.069000000     1.235000000
H    -5.801000000     2.210000000     2.023000000
H    -5.215000000     1.117000000     1.156000000
O     6.482000000     2.120000000    -0.582000000
H     6.599000000     2.211000000     0.363000000
H     6.368000000     1.180000000    -0.720000000
O    -0.326000000    -5.039000000    -1.298000000
H    -0.442000000    -4.132000000    -1.579000000
H    -0.698000000    -5.560000000    -2.010000000
O     0.602000000    -0.675000000     7.267000000
H     0.920000000    -1.448000000     6.801000000
H    -0.104000000    -0.337000000     6.716000000
O     7.623000000    -3.480000000     2.619000000
H     6.719000000    -3.203000000     2.764000000
H     7.731000000    -3.458000000     1.668000000
O     0.493000000     0.388000000    -5.053000000
H     0.154000000     0.997000000    -4.398000000
H     0.599000000     0.920000000    -5.842000000
O     2.014000000    -5.087000000     3.359000000
H     1.946000000    -4.803000000     2.448000000
H     2.956000000    -5.131000000     3.526000000
O    -4.107000000     3.342000000    -1.007000000
H    -4.138000000     2.824000000    -1.811000000
H    -4.628000000     2.841000000    -0.379000000
O     2.430000000    -6.262000000    -2.013000000
H     2.333000000    -6.042000000    -1.086000000
H     3.347000000    -6.069000000    -2.210000000
O     2.212000000     3.159000000    -4.146000000
H     2.666000000     3.751000000    -3.546000000
H     2.870000000     2.505000000    -4.381000000
O    -2.815000000    -1.781000000     3.669000000
H    -2.595000000    -2.145000000     2.811000000
H    -3.759000000    -1.627000000     3.628000000
O    -3.045000000    -3.355000000     1.507000000
H    -3.137000000    -2.985000000     0.629000000
H    -2.670000000    -4.224000000     1.363000000
O     2.770000000     4.582000000    -1.865000000
H     1.875000000     4.915000000    -1.799000000
H     2.806000000     3.865000000    -1.232000000
O    -3.999000000     2.133000000     6.070000000
H    -3.659000000     2.329000000     5.197000000
H    -3.218000000     2.041000000     6.616000000
O    -4.441000000     1.516000000    -3.236000000
H    -5.112000000     2.194000000    -3.319000000
H    -4.147000000     1.359000000    -4.134000000
O     1.618000000    -4.914000000     0.570000000
H     0.984000000    -5.027000000    -0.139000000
H     1.737000000    -3.967000000     0.637000000
O     7.594000000    -4.118000000    -0.054000000
H     8.204000000    -4.058000000    -0.790000000
H     6.765000000    -3.791000000    -0.403000000
O     0.348000000     5.345000000     1.146000000
H     0.621000000     5.249000000     0.234000000
H    -0.429000000     5.902000000     1.107000000
O     5.429000000    -3.876000000    -4.347000000
H     4.532000000    -3.597000000    -4.168000000
H     5.506000000    -4.727000000    -3.915000000
O     6.382000000    -0.664000000    -4.070000000
H     7.133000000    -0.768000000    -4.654000000
H     5.786000000    -1.370000000    -4.317000000
O    -5.536000000    -1.341000000    -2.865000000
H    -6.379000000    -1.721000000    -3.114000000
H    -5.674000000    -0.396000000    -2.923000000
O     0.339000000     5.544000000    -1.701000000
H     0.229000000     6.427000000    -2.053000000
H    -0.468000000     5.089000000    -1.939000000
O     6.217000000     1.807000000     1.955000000
H     5.448000000     1.392000000     2.345000000
H     6.736000000     2.102000000     2.703000000
O     3.575000000     1.767000000     3.053000000
H     3.276000000     2.592000000     2.671000000
H     2.770000000     1.306000000     3.289000000
O    -3.217000000    -1.817000000    -4.201000000
H    -4.039000000    -1.528000000    -3.804000000
H    -3.337000000    -1.667000000    -5.138000000
O     5.893000000    -0.847000000    -1.379000000
H     6.265000000    -1.007000000    -2.246000000
H     4.975000000    -1.106000000    -1.461000000
O    -5.906000000    -1.480000000     3.839000000
H    -6.100000000    -0.620000000     4.209000000
H    -6.583000000    -2.054000000     4.197000000
O     0.348000000    -2.309000000    -4.070000000
H     0.425000000    -1.375000000    -4.266000000
H    -0.262000000    -2.349000000    -3.334000000
O     7.820000000    -0.516000000     0.801000000
H     7.261000000    -0.876000000     0.113000000
H     7.445000000     0.345000000     0.989000000
O     0.326000000     4.200000000     3.688000000
H     0.379000000     4.371000000     2.748000000
H     1.142000000     3.745000000     3.896000000
O     2.903000000    -3.120000000    -3.520000000
H     3.068000000    -2.431000000    -2.876000000
H     1.988000000    -2.997000000    -3.773000000
O     4.958000000    -2.450000000     2.466000000
H     4.449000000    -2.391000000     1.657000000
H     5.017000000    -1.547000000     2.778000000
