161
-3054.49148
C     0.566000000    -0.594000000    -1.327000000
H     0.779000000    -1.194000000    -2.208000000
C    -0.795000000    -0.420000000    -0.966000000
H    -1.594000000    -0.673000000    -1.658000000
C    -1.187000000     0.068000000     0.293000000
C    -2.668000000     0.479000000     0.611000000
H    -2.822000000     1.558000000     0.548000000
H    -3.341000000    -0.101000000    -0.025000000
H    -2.882000000     0.141000000     1.626000000
C    -0.234000000     0.293000000     1.231000000
H    -0.532000000     0.693000000     2.196000000
C     1.114000000     0.137000000     0.899000000
H     1.820000000     0.481000000     1.651000000
C     1.521000000    -0.234000000    -0.396000000
C     3.017000000    -0.167000000    -0.797000000
O     3.767000000     0.286000000     0.080000000
O     3.464000000    -0.747000000    -1.756000000
O     5.644000000     4.247000000     1.922000000
H     5.964000000     5.122000000     2.142000000
H     5.946000000     4.100000000     1.026000000
O    -5.884000000     1.025000000     0.373000000
H    -5.983000000     1.832000000     0.878000000
H    -6.573000000     0.449000000     0.704000000
O     0.416000000     1.230000000     4.900000000
H     1.009000000     1.474000000     5.612000000
H     0.657000000     1.811000000     4.178000000
O    -6.246000000     3.873000000     1.208000000
H    -5.498000000     4.295000000     0.785000000
H    -6.876000000     3.736000000     0.500000000
O     2.229000000    -2.583000000     3.234000000
H     2.495000000    -3.502000000     3.260000000
H     2.947000000    -2.138000000     2.784000000
O     7.469000000     2.090000000    -1.851000000
H     8.276000000     1.708000000    -2.197000000
H     6.773000000     1.696000000    -2.377000000
O     0.490000000     2.195000000    -3.981000000
H     0.150000000     2.458000000    -4.837000000
H    -0.250000000     1.765000000    -3.552000000
O    -0.937000000     0.519000000     7.057000000
H    -0.399000000     0.854000000     7.775000000
H    -0.497000000     0.828000000     6.265000000
O    -5.189000000     2.514000000     4.719000000
H    -4.283000000     2.204000000     4.693000000
H    -5.504000000     2.260000000     5.587000000
O     5.008000000     1.342000000    -3.089000000
H     5.307000000     0.679000000    -3.712000000
H     4.498000000     0.851000000    -2.445000000
O    -2.767000000     6.019000000     1.172000000
H    -3.127000000     5.662000000     1.983000000
H    -2.782000000     5.285000000     0.559000000
O    -0.830000000    -2.304000000    -4.231000000
H    -0.663000000    -3.046000000    -3.649000000
H    -1.780000000    -2.304000000    -4.352000000
O     1.541000000    -3.697000000    -0.771000000
H     2.413000000    -3.325000000    -0.637000000
H     1.704000000    -4.613000000    -0.997000000
O    -2.079000000     1.504000000    -2.860000000
H    -2.832000000     1.892000000    -2.415000000
H    -2.458000000     1.022000000    -3.596000000
O     2.954000000     3.208000000    -3.261000000
H     2.037000000     2.937000000    -3.233000000
H     3.417000000     2.451000000    -3.620000000
O     4.515000000    -3.007000000    -0.728000000
H     4.312000000    -2.264000000    -1.297000000
H     4.821000000    -3.690000000    -1.325000000
O     3.338000000     2.915000000     1.086000000
H     3.766000000     2.656000000     0.271000000
H     4.034000000     3.317000000     1.606000000
O     6.113000000     1.126000000     1.195000000
H     5.255000000     0.892000000     0.842000000
H     5.918000000     1.679000000     1.952000000
O    -1.237000000    -3.823000000    -1.555000000
H    -0.315000000    -3.626000000    -1.389000000
H    -1.235000000    -4.290000000    -2.390000000
O    -5.046000000    -0.371000000     3.683000000
H    -5.175000000    -0.945000000     2.928000000
H    -4.614000000     0.404000000     3.324000000
O    -3.922000000     4.832000000     3.416000000
H    -4.721000000     4.405000000     3.725000000
H    -3.246000000     4.552000000     4.034000000
O    -3.477000000    -3.481000000     4.960000000
H    -2.946000000    -4.125000000     5.428000000
H    -2.974000000    -2.669000000     5.017000000
O     4.451000000    -1.761000000     1.787000000
H     4.600000000    -2.386000000     1.078000000
H     4.204000000    -0.949000000     1.344000000
O    -4.118000000     0.407000000    -5.752000000
H    -4.963000000     0.061000000    -5.467000000
H    -3.483000000    -0.252000000    -5.472000000
O    -2.620000000     1.602000000     4.182000000
H    -2.120000000     1.925000000     3.433000000
H    -2.337000000     0.694000000     4.286000000
O    -4.145000000     4.971000000    -1.034000000
H    -3.386000000     4.996000000    -1.617000000
H    -4.495000000     5.862000000    -1.056000000
O     6.971000000    -2.069000000    -4.860000000
H     6.163000000    -2.572000000    -4.962000000
H     7.395000000    -2.120000000    -5.717000000
O     3.457000000     5.163000000    -1.474000000
H     4.016000000     4.572000000    -0.971000000
H     3.125000000     4.625000000    -2.193000000
O    -1.700000000    -1.465000000     3.995000000
H    -0.969000000    -1.253000000     4.576000000
H    -1.289000000    -1.859000000     3.226000000
O    -2.953000000    -4.019000000     0.481000000
H    -2.462000000    -3.952000000    -0.338000000
H    -2.751000000    -4.894000000     0.812000000
O    -0.247000000     2.787000000    -0.589000000
H    -0.019000000     1.938000000    -0.211000000
H    -0.728000000     2.571000000    -1.389000000
O    -5.051000000    -2.949000000    -1.815000000
H    -5.400000000    -3.734000000    -2.237000000
H    -4.841000000    -3.229000000    -0.924000000
O     8.127000000    -2.651000000    -2.019000000
H     7.506000000    -2.140000000    -1.499000000
H     7.646000000    -2.872000000    -2.816000000
O    -4.790000000    -2.882000000     2.461000000
H    -4.361000000    -3.131000000     3.280000000
H    -4.083000000    -2.866000000     1.816000000
O     1.700000000     2.789000000     3.239000000
H     2.336000000     2.650000000     2.537000000
H     2.079000000     3.491000000     3.769000000
O     4.635000000    -3.354000000    -4.953000000
H     4.485000000    -3.924000000    -4.199000000
H     4.100000000    -2.580000000    -4.779000000
O    -6.628000000    -0.477000000    -2.143000000
H    -6.168000000     0.095000000    -1.529000000
H    -6.076000000    -1.256000000    -2.204000000
O    -3.665000000    -2.327000000    -4.202000000
H    -4.078000000    -2.618000000    -3.389000000
H    -4.163000000    -2.763000000    -4.893000000
O     6.064000000     4.078000000    -0.771000000
H     6.324000000     4.929000000    -1.125000000
H     6.561000000     3.442000000    -1.286000000
O    -0.859000000    -2.781000000     1.936000000
H     0.019000000    -2.796000000     1.554000000
H    -1.445000000    -2.694000000     1.184000000
O     6.015000000     2.313000000     4.524000000
H     5.818000000     1.561000000     5.083000000
H     5.254000000     2.390000000     3.949000000
O    -4.453000000     2.365000000    -1.975000000
H    -5.086000000     1.942000000    -1.395000000
H    -4.361000000     3.251000000    -1.625000000
O     6.392000000    -0.811000000    -0.719000000
H     6.412000000     0.079000000    -0.366000000
H     5.480000000    -0.945000000    -0.978000000
O     0.971000000    -0.549000000    -5.278000000
H     0.721000000     0.251000000    -4.816000000
H     0.350000000    -1.208000000    -4.969000000
O     1.029000000     5.017000000     0.315000000
H     0.332000000     4.470000000    -0.048000000
H     1.818000000     4.481000000     0.239000000
O     7.373000000    -1.532000000     2.029000000
H     7.157000000    -1.154000000     1.177000000
H     6.524000000    -1.726000000     2.427000000
O     3.646000000    -1.007000000    -4.299000000
H     3.665000000    -0.834000000    -3.358000000
H     2.781000000    -0.709000000    -4.580000000
O     1.898000000    -1.042000000     5.474000000
H     2.210000000    -1.531000000     4.712000000
H     1.186000000    -0.500000000     5.135000000
