161
-3034.74582
C    -0.681000000     0.264000000    -1.256000000
H    -1.120000000     0.209000000    -2.248000000
C    -0.800000000    -0.884000000    -0.491000000
H    -1.400000000    -1.736000000    -0.799000000
C    -0.208000000    -0.929000000     0.767000000
C    -0.398000000    -2.260000000     1.517000000
H     0.022000000    -2.096000000     2.512000000
H    -1.475000000    -2.340000000     1.677000000
H     0.175000000    -3.064000000     1.052000000
C     0.644000000     0.027000000     1.171000000
H     1.300000000    -0.196000000     2.009000000
C     0.785000000     1.197000000     0.389000000
H     1.573000000     1.887000000     0.678000000
C     0.112000000     1.333000000    -0.837000000
C     0.408000000     2.555000000    -1.768000000
O     1.482000000     3.021000000    -1.800000000
O    -0.425000000     3.013000000    -2.576000000
O     4.209000000     0.306000000     1.049000000
H     4.200000000    -0.518000000     0.561000000
H     4.669000000     0.919000000     0.475000000
O     0.167000000     3.453000000    -5.192000000
H     0.361000000     3.211000000    -4.286000000
H    -0.773000000     3.631000000    -5.196000000
O     0.380000000    -6.048000000     0.494000000
H    -0.394000000    -5.508000000     0.654000000
H     1.001000000    -5.455000000     0.071000000
O    -2.588000000     4.619000000    -4.998000000
H    -2.135000000     4.833000000    -4.183000000
H    -3.490000000     4.903000000    -4.852000000
O     1.309000000     3.811000000     3.024000000
H     1.950000000     3.118000000     2.865000000
H     1.803000000     4.624000000     2.916000000
O    -1.485000000     5.191000000    -2.510000000
H    -0.886000000     5.719000000    -1.983000000
H    -0.949000000     4.463000000    -2.826000000
O    -3.470000000    -2.439000000    -3.246000000
H    -3.752000000    -2.080000000    -4.087000000
H    -2.879000000    -3.156000000    -3.477000000
O     2.695000000     2.236000000    -3.976000000
H     2.399000000     2.881000000    -4.618000000
H     2.360000000     2.560000000    -3.140000000
O    -3.577000000    -1.340000000    -5.781000000
H    -2.825000000    -0.762000000    -5.910000000
H    -3.820000000    -1.618000000    -6.664000000
O    -4.379000000     0.482000000     2.758000000
H    -3.870000000     0.814000000     2.019000000
H    -5.278000000     0.444000000     2.432000000
O    -4.329000000    -4.233000000     4.097000000
H    -4.517000000    -5.171000000     4.145000000
H    -4.194000000    -4.064000000     3.164000000
O     1.376000000    -0.203000000     5.466000000
H     0.525000000    -0.044000000     5.057000000
H     1.180000000    -0.768000000     6.214000000
O     2.322000000     5.189000000    -5.954000000
H     1.863000000     4.357000000    -6.066000000
H     2.279000000     5.362000000    -5.014000000
O     1.070000000    -5.633000000     3.420000000
H     1.249000000    -6.363000000     2.826000000
H     1.688000000    -4.952000000     3.156000000
O     3.135000000     6.090000000     2.541000000
H     3.333000000     5.820000000     1.644000000
H     3.912000000     5.842000000     3.042000000
O     4.790000000     2.715000000    -0.663000000
H     5.573000000     2.174000000    -0.560000000
H     4.382000000     2.394000000    -1.467000000
O     0.155000000    -2.512000000    -4.699000000
H    -0.201000000    -3.086000000    -5.377000000
H    -0.057000000    -1.628000000    -4.997000000
O    -1.781000000    -2.721000000     4.912000000
H    -1.213000000    -3.456000000     4.680000000
H    -2.658000000    -3.102000000     4.959000000
O     1.858000000     7.338000000    -0.333000000
H     1.128000000     7.124000000     0.249000000
H     2.433000000     6.574000000    -0.285000000
O     3.291000000     5.064000000    -0.098000000
H     2.616000000     4.441000000    -0.369000000
H     4.113000000     4.585000000    -0.199000000
O    -5.945000000    -1.826000000     3.765000000
H    -5.595000000    -2.663000000     3.462000000
H    -5.321000000    -1.175000000     3.445000000
O     2.895000000    -3.085000000     5.031000000
H     2.067000000    -2.733000000     5.357000000
H     3.448000000    -2.314000000     4.902000000
O     3.944000000    -0.394000000    -2.068000000
H     4.133000000    -0.979000000    -2.801000000
H     2.995000000    -0.451000000    -1.954000000
O     1.275000000    -2.248000000    -2.193000000
H     0.955000000    -2.314000000    -3.093000000
H     0.608000000    -1.733000000    -1.739000000
O    -1.931000000     2.818000000     4.149000000
H    -1.029000000     2.846000000     3.831000000
H    -2.064000000     1.908000000     4.413000000
O     2.245000000    -3.906000000    -0.376000000
H     2.920000000    -3.465000000     0.140000000
H     1.878000000    -3.216000000    -0.929000000
O    -3.098000000     3.114000000    -1.871000000
H    -2.362000000     3.725000000    -1.850000000
H    -2.835000000     2.402000000    -1.288000000
O     3.527000000    -5.642000000    -2.049000000
H     4.066000000    -6.179000000    -1.468000000
H     2.995000000    -5.109000000    -1.458000000
O     4.577000000     6.216000000    -3.074000000
H     4.588000000     6.828000000    -3.809000000
H     3.699000000     5.835000000    -3.093000000
O     4.020000000     2.313000000     3.037000000
H     4.917000000     2.052000000     3.248000000
H     3.695000000     1.615000000     2.469000000
O    -4.640000000    -3.583000000     1.029000000
H    -4.772000000    -2.972000000     0.304000000
H    -5.504000000    -3.967000000     1.178000000
O    -1.429000000     0.134000000     5.028000000
H    -1.678000000    -0.750000000     4.758000000
H    -1.440000000     0.104000000     5.985000000
O    -3.324000000     1.006000000     0.384000000
H    -3.768000000     0.304000000    -0.092000000
H    -2.392000000     0.829000000     0.255000000
O    -4.772000000    -1.492000000    -0.922000000
H    -5.521000000    -1.132000000    -1.396000000
H    -4.269000000    -1.959000000    -1.589000000
O    -2.470000000     1.888000000    -5.327000000
H    -2.795000000     2.739000000    -5.622000000
H    -3.077000000     1.628000000    -4.634000000
O     2.008000000     5.182000000    -3.253000000
H     1.617000000     4.403000000    -2.858000000
H     1.338000000     5.859000000    -3.162000000
O     3.557000000    -5.057000000     1.911000000
H     3.859000000    -5.683000000     1.254000000
H     3.812000000    -4.202000000     1.564000000
O    -1.503000000    -5.736000000     4.361000000
H    -2.046000000    -6.140000000     3.684000000
H    -0.647000000    -5.626000000     3.947000000
O    -2.143000000    -4.763000000    -0.015000000
H    -2.921000000    -4.377000000     0.387000000
H    -2.480000000    -5.267000000    -0.755000000
O    -0.235000000    -8.251000000     2.193000000
H    -0.966000000    -8.602000000     1.683000000
H     0.050000000    -7.480000000     1.704000000
O     6.332000000     4.107000000    -2.646000000
H     6.709000000     4.279000000    -1.783000000
H     5.539000000     4.643000000    -2.671000000
O     3.852000000    -0.323000000     4.748000000
H     3.984000000     0.177000000     3.943000000
H     2.947000000    -0.140000000     4.999000000
O    -4.814000000     2.028000000    -3.716000000
H    -5.589000000     1.690000000    -3.268000000
H    -4.292000000     2.429000000    -3.021000000
O     3.813000000     0.228000000    -5.274000000
H     4.717000000     0.181000000    -4.964000000
H     3.423000000     0.942000000    -4.769000000
O     4.499000000    -2.847000000     0.765000000
H     5.212000000    -3.041000000     0.157000000
H     4.817000000    -2.104000000     1.278000000
O    -0.200000000     0.495000000    -5.288000000
H    -0.981000000     1.041000000    -5.189000000
H     0.466000000     0.930000000    -4.756000000
O    -0.405000000    -5.085000000    -2.719000000
H    -1.279000000    -5.028000000    -2.333000000
H    -0.225000000    -4.201000000    -3.037000000
O    -4.662000000     4.744000000    -0.272000000
H    -4.196000000     4.300000000    -0.981000000
H    -4.118000000     5.504000000    -0.068000000
