161
-3025.30676
C    -0.116000000     0.507000000    -1.338000000
H    -0.251000000     0.698000000    -2.400000000
C    -0.796000000    -0.608000000    -0.833000000
H    -1.394000000    -1.221000000    -1.503000000
C    -0.633000000    -0.987000000     0.467000000
C    -1.182000000    -2.188000000     0.968000000
H    -0.568000000    -3.084000000     1.080000000
H    -1.704000000    -1.959000000     1.899000000
H    -1.898000000    -2.584000000     0.245000000
C     0.193000000    -0.177000000     1.270000000
H     0.404000000    -0.582000000     2.257000000
C     0.829000000     0.981000000     0.790000000
H     1.362000000     1.614000000     1.495000000
C     0.716000000     1.328000000    -0.558000000
C     1.477000000     2.482000000    -1.120000000
O     2.226000000     3.135000000    -0.398000000
O     1.335000000     2.653000000    -2.318000000
O     0.799000000     7.362000000    -1.335000000
H     1.117000000     7.678000000    -0.489000000
H    -0.136000000     7.567000000    -1.332000000
O     5.016000000     0.782000000     3.084000000
H     5.864000000     0.421000000     3.344000000
H     5.104000000     0.946000000     2.145000000
O     4.796000000     6.016000000    -1.559000000
H     4.128000000     5.724000000    -2.180000000
H     5.067000000     5.218000000    -1.105000000
O    -2.492000000     3.207000000    -5.245000000
H    -1.808000000     3.394000000    -4.601000000
H    -3.184000000     2.777000000    -4.741000000
O    -1.500000000     6.258000000    -0.248000000
H    -2.368000000     6.608000000    -0.449000000
H    -1.595000000     5.311000000    -0.349000000
O    -5.385000000    -0.968000000     5.100000000
H    -5.578000000    -0.639000000     4.222000000
H    -4.988000000    -1.827000000     4.953000000
O    -1.011000000     3.944000000     2.474000000
H    -0.548000000     4.746000000     2.718000000
H    -1.548000000     4.196000000     1.723000000
O    -0.761000000     3.790000000    -3.389000000
H    -0.641000000     4.737000000    -3.452000000
H     0.005000000     3.483000000    -2.904000000
O    -4.173000000    -2.234000000    -1.346000000
H    -4.423000000    -3.141000000    -1.168000000
H    -3.811000000    -2.255000000    -2.232000000
O     4.093000000     2.614000000    -2.665000000
H     3.151000000     2.739000000    -2.544000000
H     4.481000000     2.923000000    -1.846000000
O    -3.624000000    -1.861000000    -4.026000000
H    -4.232000000    -1.428000000    -4.625000000
H    -3.171000000    -2.505000000    -4.569000000
O    -3.955000000    -3.998000000     1.741000000
H    -3.213000000    -3.701000000     2.268000000
H    -4.143000000    -4.878000000     2.067000000
O     2.603000000    -1.104000000     5.293000000
H     1.845000000    -1.656000000     5.485000000
H     2.251000000    -0.388000000     4.766000000
O     1.418000000     3.753000000    -5.551000000
H     1.191000000     3.391000000    -4.694000000
H     2.101000000     3.170000000    -5.883000000
O     4.892000000     3.699000000    -0.175000000
H     5.437000000     3.466000000     0.577000000
H     4.001000000     3.723000000     0.174000000
O     1.835000000    -2.258000000    -3.583000000
H     1.176000000    -2.663000000    -4.148000000
H     1.890000000    -1.353000000    -3.890000000
O    -1.377000000    -4.514000000     4.851000000
H    -0.609000000    -4.125000000     5.270000000
H    -1.064000000    -4.799000000     3.993000000
O     2.470000000     3.916000000     2.391000000
H     2.303000000     3.915000000     1.449000000
H     1.810000000     4.509000000     2.751000000
O    -4.089000000    -3.537000000     4.927000000
H    -4.386000000    -4.211000000     4.316000000
H    -3.176000000    -3.763000000     5.108000000
O     2.558000000    -4.854000000     3.368000000
H     2.290000000    -4.150000000     3.959000000
H     2.887000000    -4.402000000     2.591000000
O     4.476000000     0.437000000    -0.026000000
H     3.925000000    -0.174000000    -0.516000000
H     3.864000000     1.086000000     0.320000000
O    -5.700000000    -0.195000000     2.539000000
H    -5.932000000    -1.072000000     2.234000000
H    -5.934000000     0.382000000     1.812000000
O     3.188000000    -1.665000000    -1.104000000
H     3.868000000    -2.216000000    -1.492000000
H     2.440000000    -1.755000000    -1.695000000
O    -0.221000000     1.628000000     5.284000000
H     0.700000000     1.680000000     5.027000000
H    -0.675000000     1.343000000     4.490000000
O     3.035000000    -3.137000000     1.270000000
H     3.897000000    -2.722000000     1.274000000
H     2.443000000    -2.456000000     0.950000000
O     0.384000000    -3.012000000    -5.883000000
H    -0.039000000    -3.165000000    -6.728000000
H     0.547000000    -2.069000000    -5.864000000
O     0.210000000    -0.459000000    -5.945000000
H     0.520000000    -0.112000000    -5.109000000
H     0.096000000     0.314000000    -6.498000000
O    -1.938000000     3.633000000    -0.566000000
H    -2.161000000     2.803000000    -0.145000000
H    -1.439000000     3.381000000    -1.343000000
O     3.382000000    -5.669000000    -0.119000000
H     3.527000000    -6.455000000     0.407000000
H     3.010000000    -5.036000000     0.495000000
O     4.213000000     5.516000000    -4.547000000
H     3.876000000     6.357000000    -4.857000000
H     3.554000000     5.209000000    -3.924000000
O    -1.970000000    -4.080000000    -3.075000000
H    -2.008000000    -3.133000000    -3.212000000
H    -2.844000000    -4.391000000    -3.313000000
O     2.637000000     1.701000000     4.104000000
H     3.542000000     1.470000000     4.312000000
H     2.711000000     2.398000000     3.452000000
O    -3.002000000    -6.610000000    -0.718000000
H    -3.873000000    -6.880000000    -1.009000000
H    -2.926000000    -5.699000000    -1.001000000
O    -6.359000000    -2.615000000     1.667000000
H    -6.910000000    -2.915000000     2.390000000
H    -5.597000000    -3.194000000     1.691000000
O    -0.026000000    -1.855000000     5.655000000
H    -0.907000000    -1.533000000     5.851000000
H     0.039000000    -2.681000000     6.135000000
O    -2.971000000     1.109000000     0.235000000
H    -3.835000000     0.709000000     0.132000000
H    -2.382000000     0.370000000     0.387000000
O    -5.593000000     0.138000000    -0.444000000
H    -6.475000000    -0.122000000    -0.179000000
H    -5.187000000    -0.672000000    -0.755000000
O     2.134000000     5.247000000    -2.805000000
H     1.853000000     4.392000000    -2.480000000
H     1.606000000     5.876000000    -2.312000000
O     7.093000000     1.233000000    -0.867000000
H     6.232000000     1.086000000    -0.474000000
H     7.486000000     0.361000000    -0.916000000
O    -1.025000000    -5.918000000     2.624000000
H    -1.503000000    -6.573000000     3.133000000
H    -0.529000000    -6.428000000     1.984000000
O    -0.077000000    -6.254000000    -0.446000000
H    -0.881000000    -6.005000000    -0.903000000
H     0.611000000    -5.753000000    -0.882000000
O     4.829000000    -2.594000000     4.546000000
H     5.483000000    -2.026000000     4.138000000
H     4.025000000    -2.073000000     4.544000000
O    -2.959000000     0.913000000    -3.407000000
H    -3.301000000     0.946000000    -2.514000000
H    -3.130000000     0.017000000    -3.696000000
O     4.615000000     1.379000000    -4.929000000
H     5.522000000     1.102000000    -4.797000000
H     4.399000000     1.876000000    -4.140000000
O     5.072000000     5.681000000     2.151000000
H     5.775000000     5.130000000     1.807000000
H     4.537000000     5.087000000     2.677000000
O     1.916000000     0.589000000    -3.941000000
H     2.812000000     0.531000000    -4.272000000
H     1.997000000     1.057000000    -3.110000000
O    -2.273000000     1.540000000     3.178000000
H    -2.356000000     1.258000000     2.267000000
H    -1.780000000     2.359000000     3.131000000
O     1.277000000    -4.539000000    -2.255000000
H     0.557000000    -4.665000000    -2.873000000
H     1.560000000    -3.636000000    -2.397000000
