161
-3027.74025
C    -0.257000000     1.337000000     0.561000000
H    -0.451000000     2.328000000     0.964000000
C    -1.239000000     0.349000000     0.457000000
H    -2.240000000     0.576000000     0.815000000
C    -0.821000000    -0.918000000    -0.118000000
C    -1.879000000    -1.962000000    -0.285000000
H    -1.787000000    -2.596000000     0.600000000
H    -2.864000000    -1.491000000    -0.241000000
H    -1.668000000    -2.663000000    -1.094000000
C     0.442000000    -1.156000000    -0.501000000
H     0.699000000    -2.100000000    -0.975000000
C     1.373000000    -0.106000000    -0.386000000
H     2.388000000    -0.312000000    -0.715000000
C     1.083000000     1.153000000     0.206000000
C     2.109000000     2.238000000     0.217000000
O     3.253000000     1.904000000     0.260000000
O     1.859000000     3.413000000     0.232000000
O    -0.177000000     6.520000000     3.032000000
H     0.581000000     6.401000000     2.461000000
H     0.064000000     6.077000000     3.845000000
O     3.984000000    -1.404000000    -3.093000000
H     3.953000000    -1.847000000    -2.245000000
H     3.676000000    -0.516000000    -2.911000000
O     3.226000000     3.772000000     4.793000000
H     3.589000000     4.318000000     4.095000000
H     2.284000000     3.943000000     4.764000000
O     0.853000000     3.046000000    -3.914000000
H     0.472000000     2.232000000    -3.585000000
H     0.809000000     2.964000000    -4.867000000
O    -4.011000000     2.969000000    -0.004000000
H    -4.913000000     2.699000000     0.168000000
H    -3.598000000     2.192000000    -0.382000000
O    -3.772000000     1.708000000     3.282000000
H    -4.097000000     0.876000000     2.939000000
H    -4.431000000     2.350000000     3.017000000
O     0.322000000     4.408000000     4.874000000
H    -0.199000000     4.967000000     5.450000000
H    -0.325000000     3.885000000     4.399000000
O     0.243000000     0.551000000    -3.176000000
H     0.661000000     0.131000000    -2.423000000
H    -0.336000000    -0.121000000    -3.534000000
O    -4.789000000    -3.769000000     4.000000000
H    -4.344000000    -3.366000000     4.745000000
H    -4.208000000    -4.480000000     3.729000000
O    -2.528000000    -0.895000000    -4.025000000
H    -2.923000000    -0.246000000    -3.443000000
H    -3.090000000    -1.666000000    -3.939000000
O     0.761000000    -5.209000000    -4.733000000
H    -0.058000000    -5.517000000    -4.346000000
H     0.972000000    -4.413000000    -4.245000000
O     2.114000000     0.132000000    -5.782000000
H     2.522000000     0.304000000    -4.933000000
H     1.188000000    -0.001000000    -5.581000000
O    -1.851000000    -2.672000000     3.308000000
H    -1.087000000    -2.144000000     3.540000000
H    -1.507000000    -3.347000000     2.722000000
O     0.777000000    -1.850000000     3.259000000
H     0.764000000    -1.811000000     2.303000000
H     1.654000000    -2.169000000     3.473000000
O     4.751000000     3.717000000     1.406000000
H     4.173000000     3.114000000     0.939000000
H     5.075000000     4.311000000     0.730000000
O     5.382000000     1.187000000    -0.898000000
H     5.595000000     0.319000000    -0.555000000
H     4.615000000     1.462000000    -0.394000000
O    -2.815000000    -5.533000000     2.347000000
H    -3.177000000    -5.494000000     1.461000000
H    -1.955000000    -5.119000000     2.273000000
O     1.769000000    -3.048000000    -3.472000000
H     2.245000000    -3.303000000    -2.682000000
H     2.377000000    -2.479000000    -3.945000000
O     3.538000000    -1.827000000     3.787000000
H     3.701000000    -0.957000000     3.421000000
H     3.648000000    -1.714000000     4.731000000
O     6.840000000     0.537000000    -3.397000000
H     7.586000000     1.108000000    -3.216000000
H     6.363000000     0.496000000    -2.568000000
O     3.343000000     4.276000000    -2.176000000
H     2.781000000     4.402000000    -1.412000000
H     4.218000000     4.143000000    -1.811000000
O    -6.513000000    -3.594000000    -2.134000000
H    -7.329000000    -3.985000000    -2.447000000
H    -6.475000000    -3.828000000    -1.207000000
O    -4.216000000    -1.219000000     2.442000000
H    -4.704000000    -2.039000000     2.365000000
H    -3.367000000    -1.478000000     2.801000000
O    -3.591000000     4.868000000     1.969000000
H    -3.682000000     5.669000000     1.453000000
H    -3.563000000     4.166000000     1.320000000
O    -0.322000000    -4.681000000     2.271000000
H     0.540000000    -4.889000000     2.632000000
H    -0.165000000    -4.545000000     1.337000000
O     2.842000000    -4.274000000    -1.261000000
H     2.283000000    -4.864000000    -0.755000000
H     3.503000000    -4.847000000    -1.651000000
O    -1.397000000    -5.327000000    -3.209000000
H    -2.202000000    -5.639000000    -3.621000000
H    -1.654000000    -4.520000000    -2.762000000
O     5.113000000    -2.455000000    -0.269000000
H     5.888000000    -2.526000000    -0.827000000
H     4.423000000    -2.902000000    -0.758000000
O    -5.534000000     0.497000000     0.302000000
H    -4.963000000     0.386000000     1.062000000
H    -6.416000000     0.341000000     0.640000000
O     6.305000000     3.837000000    -1.364000000
H     7.064000000     3.793000000    -1.946000000
H     5.988000000     2.935000000    -1.316000000
O     0.464000000    -5.862000000    -0.485000000
H    -0.260000000    -6.474000000    -0.354000000
H     0.897000000    -6.170000000    -1.281000000
O     0.369000000     1.386000000     3.889000000
H     0.270000000     0.720000000     3.208000000
H    -0.064000000     2.161000000     3.530000000
O    -0.837000000     6.780000000     0.004000000
H    -1.122000000     6.107000000    -0.614000000
H    -1.606000000     6.946000000     0.549000000
O    -6.623000000    -0.776000000    -2.551000000
H    -6.555000000    -1.727000000    -2.463000000
H    -6.338000000    -0.436000000    -1.703000000
O    -3.917000000    -3.076000000    -3.658000000
H    -3.801000000    -3.651000000    -4.414000000
H    -4.745000000    -3.356000000    -3.269000000
O    -2.078000000    -7.517000000    -1.039000000
H    -2.771000000    -6.898000000    -0.806000000
H    -2.128000000    -7.584000000    -1.992000000
O     2.138000000     5.584000000     1.941000000
H     2.100000000     4.859000000     1.317000000
H     2.754000000     5.290000000     2.612000000
O    -2.714000000     4.475000000    -2.281000000
H    -3.353000000     4.333000000    -1.583000000
H    -1.876000000     4.218000000    -1.894000000
O    -0.098000000     4.190000000    -1.478000000
H     0.495000000     4.204000000    -0.727000000
H     0.473000000     4.047000000    -2.232000000
O     3.943000000     0.752000000     2.667000000
H     3.596000000     1.322000000     3.354000000
H     3.583000000     1.109000000     1.855000000
O     6.490000000    -0.174000000     3.271000000
H     6.078000000    -1.038000000     3.271000000
H     5.820000000     0.411000000     2.917000000
O    -3.659000000     1.529000000     6.038000000
H    -3.680000000     0.785000000     6.640000000
H    -3.568000000     1.133000000     5.171000000
O    -4.109000000    -5.521000000    -0.386000000
H    -4.457000000    -5.763000000    -1.244000000
H    -4.882000000    -5.440000000     0.172000000
O    -1.543000000     3.359000000     3.395000000
H    -1.886000000     4.186000000     3.058000000
H    -2.310000000     2.790000000     3.460000000
O     4.150000000     7.525000000     0.408000000
H     3.524000000     6.926000000     0.814000000
H     4.978000000     7.346000000     0.854000000
O     5.826000000    -2.973000000     2.505000000
H     5.698000000    -3.913000000     2.628000000
H     5.407000000    -2.782000000     1.666000000
O     3.078000000     1.341000000    -2.966000000
H     2.922000000     2.049000000    -3.591000000
H     3.412000000     1.781000000    -2.184000000
O    -2.936000000     1.436000000    -2.064000000
H    -3.086000000     2.171000000    -2.658000000
H    -1.987000000     1.416000000    -1.942000000
