161
-3050.85703
C     1.276000000     0.231000000     0.802000000
H     2.102000000     0.519000000     1.447000000
C     0.118000000     1.028000000     0.798000000
H     0.178000000     1.945000000     1.378000000
C    -1.080000000     0.670000000     0.142000000
C    -2.347000000     1.517000000     0.141000000
H    -2.115000000     2.364000000     0.791000000
H    -2.597000000     1.949000000    -0.830000000
H    -3.136000000     0.877000000     0.545000000
C    -1.008000000    -0.497000000    -0.579000000
H    -1.838000000    -0.772000000    -1.224000000
C     0.176000000    -1.230000000    -0.781000000
H     0.098000000    -2.074000000    -1.462000000
C     1.354000000    -0.891000000    -0.047000000
C     2.615000000    -1.722000000    -0.235000000
O     2.544000000    -2.712000000    -0.906000000
O     3.660000000    -1.201000000     0.018000000
O     1.749000000    -7.295000000    -2.603000000
H     1.910000000    -7.146000000    -3.535000000
H     2.409000000    -6.762000000    -2.158000000
O     2.376000000    -0.681000000    -3.648000000
H     2.088000000    -1.217000000    -2.909000000
H     3.218000000    -0.321000000    -3.370000000
O     5.760000000     2.579000000     1.867000000
H     6.579000000     2.427000000     2.338000000
H     5.814000000     2.008000000     1.101000000
O    -0.499000000    -0.647000000     4.108000000
H    -1.044000000    -0.907000000     3.365000000
H    -0.150000000     0.210000000     3.861000000
O    -3.108000000    -5.061000000     1.558000000
H    -3.158000000    -5.168000000     2.508000000
H    -2.171000000    -4.995000000     1.374000000
O     6.090000000    -2.205000000     0.881000000
H     6.905000000    -2.062000000     0.400000000
H     5.425000000    -1.747000000     0.367000000
O     4.783000000    -3.642000000    -2.045000000
H     5.249000000    -3.197000000    -2.753000000
H     4.229000000    -2.963000000    -1.660000000
O    -7.892000000     1.461000000     0.020000000
H    -7.553000000     0.581000000    -0.142000000
H    -8.442000000     1.367000000     0.798000000
O    -3.830000000    -3.180000000    -3.270000000
H    -3.990000000    -2.912000000    -4.175000000
H    -3.431000000    -4.047000000    -3.344000000
O     0.351000000     5.340000000     0.358000000
H     1.048000000     5.129000000    -0.263000000
H     0.761000000     5.249000000     1.218000000
O    -2.598000000     5.161000000    -3.674000000
H    -2.200000000     5.658000000    -4.389000000
H    -2.278000000     4.267000000    -3.797000000
O    -4.359000000    -1.284000000    -1.457000000
H    -4.108000000    -0.462000000    -1.879000000
H    -4.210000000    -1.952000000    -2.126000000
O     2.832000000    -6.480000000     1.585000000
H     3.101000000    -7.170000000     0.978000000
H     3.567000000    -5.868000000     1.594000000
O     0.515000000     2.165000000     4.021000000
H     1.264000000     1.573000000     4.091000000
H     0.902000000     3.040000000     3.991000000
O     4.011000000    -4.565000000    -4.887000000
H     4.539000000    -4.511000000    -4.090000000
H     4.574000000    -4.202000000    -5.571000000
O     3.399000000     1.768000000    -2.467000000
H     2.444000000     1.704000000    -2.494000000
H     3.609000000     2.480000000    -3.072000000
O    -1.429000000     1.769000000    -3.605000000
H    -2.280000000     1.891000000    -3.184000000
H    -1.609000000     1.860000000    -4.541000000
O    -0.109000000     6.147000000     4.145000000
H     0.218000000     6.940000000     4.571000000
H     0.680000000     5.689000000     3.854000000
O     7.193000000    -3.227000000     3.264000000
H     6.874000000    -2.661000000     2.561000000
H     7.003000000    -4.115000000     2.962000000
O    -5.391000000     2.778000000    -0.811000000
H    -4.759000000     2.797000000    -0.093000000
H    -6.128000000     2.271000000    -0.469000000
O     2.207000000    -3.548000000     3.130000000
H     2.825000000    -4.279000000     3.117000000
H     2.702000000    -2.810000000     2.774000000
O    -3.226000000     5.205000000    -1.096000000
H    -2.293000000     5.360000000    -0.952000000
H    -3.309000000     5.105000000    -2.044000000
O     1.462000000    -3.879000000    -3.542000000
H     2.225000000    -4.155000000    -4.051000000
H     1.819000000    -3.643000000    -2.685000000
O     7.891000000    -0.935000000    -0.656000000
H     8.238000000    -0.116000000    -0.301000000
H     8.601000000    -1.282000000    -1.196000000
O     1.209000000    -4.995000000    -0.057000000
H     1.820000000    -5.476000000     0.500000000
H     1.716000000    -4.252000000    -0.383000000
O     2.224000000     0.000000000     4.115000000
H     2.973000000    -0.498000000     3.786000000
H     1.577000000    -0.666000000     4.348000000
O    -7.045000000    -1.096000000    -1.191000000
H    -7.281000000    -0.774000000    -2.061000000
H    -6.088000000    -1.091000000    -1.184000000
O    -1.594000000     4.169000000     5.081000000
H    -1.461000000     4.924000000     4.509000000
H    -0.723000000     3.971000000     5.425000000
O     0.988000000     2.006000000    -1.983000000
H     0.156000000     1.903000000    -2.445000000
H     0.899000000     1.459000000    -1.202000000
O     3.717000000    -6.050000000    -1.285000000
H     4.533000000    -6.530000000    -1.140000000
H     3.998000000    -5.156000000    -1.482000000
O     4.179000000    -1.440000000     2.752000000
H     5.061000000    -1.632000000     3.070000000
H     4.266000000    -1.424000000     1.799000000
O     6.759000000     1.047000000    -3.068000000
H     7.629000000     0.692000000    -3.251000000
H     6.595000000     0.818000000    -2.153000000
O    -6.063000000     1.909000000     4.023000000
H    -5.672000000     1.037000000     3.974000000
H    -5.392000000     2.448000000     4.442000000
O    -3.717000000     2.477000000     4.953000000
H    -3.255000000     1.638000000     4.951000000
H    -3.026000000     3.130000000     4.844000000
O    -4.927000000    -4.177000000    -0.275000000
H    -4.430000000    -3.523000000    -0.766000000
H    -4.355000000    -4.415000000     0.454000000
O     0.351000000    -1.998000000    -5.326000000
H    -0.587000000    -2.048000000    -5.139000000
H     0.750000000    -2.616000000    -4.714000000
O    -2.058000000    -2.348000000     2.327000000
H    -1.533000000    -3.120000000     2.116000000
H    -2.497000000    -2.126000000     1.505000000
O    -4.267000000     2.113000000    -3.031000000
H    -4.979000000     2.136000000    -3.670000000
H    -4.678000000     2.367000000    -2.205000000
O    -4.025000000     5.251000000     2.043000000
H    -3.983000000     6.176000000     2.285000000
H    -3.662000000     5.218000000     1.158000000
O     2.134000000     5.016000000     3.108000000
H     2.941000000     4.525000000     3.266000000
H     2.423000000     5.811000000     2.659000000
O     4.967000000    -4.429000000     1.559000000
H     5.506000000    -3.777000000     1.112000000
H     5.596000000    -5.066000000     1.900000000
O    -0.303000000    -4.286000000     1.969000000
H     0.156000000    -4.494000000     1.156000000
H     0.391000000    -4.208000000     2.624000000
O     1.988000000     4.654000000    -1.744000000
H     1.891000000     4.876000000    -2.670000000
H     1.705000000     3.742000000    -1.685000000
O    -0.628000000     7.648000000     1.668000000
H    -0.888000000     7.489000000     2.575000000
H    -0.509000000     6.774000000     1.296000000
O    -1.354000000    -4.450000000    -1.292000000
H    -0.516000000    -4.514000000    -0.833000000
H    -1.117000000    -4.416000000    -2.219000000
O    -6.551000000     5.075000000    -2.659000000
H    -6.333000000     4.345000000    -2.080000000
H    -6.449000000     5.854000000    -2.111000000
O     5.124000000     1.118000000    -0.434000000
H     4.572000000     1.508000000    -1.112000000
H     4.771000000     0.236000000    -0.316000000
O     3.563000000     2.486000000     4.016000000
H     4.306000000     2.652000000     3.436000000
H     3.392000000     1.549000000     3.925000000
