161
-3050.37935
C     0.435000000     1.272000000     0.693000000
H     0.623000000     2.194000000     1.238000000
C    -0.861000000     0.976000000     0.259000000
H    -1.664000000     1.700000000     0.365000000
C    -1.187000000    -0.244000000    -0.370000000
C    -2.497000000    -0.642000000    -1.049000000
H    -2.411000000    -0.503000000    -2.129000000
H    -2.727000000    -1.691000000    -0.853000000
H    -3.292000000    -0.018000000    -0.636000000
C    -0.183000000    -1.157000000    -0.472000000
H    -0.334000000    -1.998000000    -1.143000000
C     1.111000000    -0.920000000     0.056000000
H     1.973000000    -1.539000000    -0.177000000
C     1.424000000     0.319000000     0.657000000
C     2.804000000     0.636000000     1.105000000
O     3.729000000    -0.111000000     0.782000000
O     3.061000000     1.731000000     1.675000000
O     3.922000000     6.374000000     3.901000000
H     3.560000000     5.853000000     3.184000000
H     4.870000000     6.274000000     3.815000000
O     4.008000000    -3.778000000    -2.475000000
H     4.604000000    -3.045000000    -2.323000000
H     3.550000000    -3.550000000    -3.284000000
O     3.678000000     2.249000000     4.438000000
H     4.630000000     2.241000000     4.345000000
H     3.349000000     2.223000000     3.539000000
O    -1.054000000    -0.438000000    -4.643000000
H    -0.221000000    -0.068000000    -4.353000000
H    -1.697000000     0.247000000    -4.457000000
O     8.190000000    -1.525000000     0.984000000
H     8.646000000    -1.463000000     0.144000000
H     8.816000000    -1.181000000     1.622000000
O     0.477000000     1.847000000     4.872000000
H     0.529000000     2.792000000     4.726000000
H    -0.442000000     1.689000000     5.089000000
O    -4.260000000    -2.944000000    -5.583000000
H    -4.333000000    -2.609000000    -4.690000000
H    -3.318000000    -3.016000000    -5.736000000
O    -1.947000000     3.482000000     3.252000000
H    -2.137000000     2.605000000     3.587000000
H    -1.141000000     3.740000000     3.699000000
O     0.719000000    -4.190000000    -2.668000000
H     1.343000000    -4.342000000    -3.378000000
H     0.072000000    -4.889000000    -2.764000000
O    -4.503000000    -5.376000000    -2.382000000
H    -3.985000000    -4.615000000    -2.644000000
H    -5.327000000    -5.281000000    -2.860000000
O    -1.024000000    -0.888000000     2.496000000
H    -0.302000000    -0.958000000     3.120000000
H    -0.627000000    -0.504000000     1.713000000
O     5.706000000    -1.157000000    -1.181000000
H     4.981000000    -0.932000000    -0.597000000
H     6.013000000    -0.315000000    -1.516000000
O    -5.186000000    -1.282000000    -2.863000000
H    -4.523000000    -1.397000000    -2.182000000
H    -5.357000000    -0.341000000    -2.875000000
O     4.886000000    -4.169000000     2.104000000
H     4.389000000    -3.352000000     2.082000000
H     4.953000000    -4.384000000     3.034000000
O    -2.451000000     2.979000000    -1.631000000
H    -1.683000000     3.169000000    -1.093000000
H    -3.196000000     3.180000000    -1.064000000
O     1.023000000    -0.853000000     4.193000000
H     1.218000000    -0.011000000     4.602000000
H     0.573000000    -1.353000000     4.874000000
O     7.568000000    -3.066000000    -1.853000000
H     6.985000000    -2.343000000    -1.619000000
H     7.725000000    -3.523000000    -1.027000000
O    -2.297000000     2.132000000    -4.082000000
H    -2.124000000     2.219000000    -3.145000000
H    -2.489000000     3.023000000    -4.374000000
O    -1.384000000    -6.724000000     0.629000000
H    -1.469000000    -5.771000000     0.673000000
H    -0.787000000    -6.944000000     1.344000000
O    -1.773000000    -4.051000000     0.969000000
H    -2.323000000    -3.271000000     0.889000000
H    -0.919000000    -3.714000000     1.240000000
O     5.129000000     5.219000000     0.015000000
H     5.534000000     5.572000000    -0.777000000
H     4.957000000     5.987000000     0.559000000
O     3.274000000     4.683000000     6.109000000
H     3.502000000     5.458000000     5.597000000
H     3.200000000     3.981000000     5.462000000
O    -5.005000000     1.369000000    -3.342000000
H    -5.470000000     1.744000000    -4.090000000
H    -4.116000000     1.718000000    -3.413000000
O    -2.446000000    -3.660000000    -3.480000000
H    -1.874000000    -3.025000000    -3.910000000
H    -1.885000000    -4.418000000    -3.317000000
O     0.304000000     5.282000000     1.998000000
H    -0.366000000     4.728000000     1.598000000
H     1.130000000     4.952000000     1.646000000
O     1.242000000    -4.088000000     2.005000000
H     1.789000000    -3.313000000     2.135000000
H     1.742000000    -4.634000000     1.399000000
O    -3.635000000     4.067000000     0.787000000
H    -2.980000000     3.858000000     1.453000000
H    -3.889000000     4.970000000     0.976000000
O     2.496000000     0.839000000     6.382000000
H     1.612000000     1.172000000     6.227000000
H     3.008000000     1.167000000     5.643000000
O     0.759000000     0.930000000    -3.032000000
H     0.189000000     0.880000000    -2.265000000
H     1.220000000     1.763000000    -2.934000000
O    -4.124000000     0.135000000     2.553000000
H    -3.340000000    -0.405000000     2.454000000
H    -4.812000000    -0.357000000     2.107000000
O     6.368000000     1.301000000     4.187000000
H     7.054000000     1.748000000     3.691000000
H     5.967000000     0.704000000     3.556000000
O    -4.867000000    -2.746000000     0.043000000
H    -4.402000000    -3.569000000    -0.107000000
H    -5.773000000    -2.936000000    -0.201000000
O    -5.649000000     2.193000000     3.808000000
H    -5.198000000     1.498000000     3.328000000
H    -5.984000000     2.776000000     3.127000000
O    -2.465000000     1.008000000     4.714000000
H    -2.857000000     0.433000000     5.373000000
H    -2.565000000     0.530000000     3.891000000
O     5.735000000    -0.912000000     2.206000000
H     5.132000000    -0.484000000     1.599000000
H     6.487000000    -1.155000000     1.665000000
O    -4.251000000    -5.123000000     2.696000000
H    -3.699000000    -5.493000000     3.385000000
H    -3.637000000    -4.865000000     2.009000000
O     3.031000000    -1.985000000     2.704000000
H     2.327000000    -1.436000000     3.049000000
H     3.564000000    -1.389000000     2.178000000
O    -7.125000000     2.023000000    -1.311000000
H    -6.344000000     1.692000000    -1.754000000
H    -7.507000000     1.252000000    -0.891000000
O    -1.194000000    -2.700000000    -6.246000000
H    -1.169000000    -1.762000000    -6.059000000
H    -0.274000000    -2.962000000    -6.281000000
O     3.236000000     4.521000000     1.919000000
H     3.111000000     3.577000000     1.816000000
H     3.791000000     4.771000000     1.180000000
O    -0.301000000     4.837000000    -0.756000000
H     0.608000000     5.099000000    -0.608000000
H    -0.668000000     5.538000000    -1.295000000
O     7.374000000     1.144000000    -1.272000000
H     7.047000000     1.502000000    -0.447000000
H     8.299000000     1.389000000    -1.290000000
O     6.191000000     2.697000000     0.885000000
H     5.355000000     2.284000000     1.106000000
H     5.974000000     3.620000000     0.752000000
O     6.561000000    -1.771000000     4.998000000
H     5.951000000    -1.501000000     5.684000000
H     6.354000000    -1.202000000     4.257000000
O    -5.817000000    -2.666000000     3.173000000
H    -5.341000000    -2.817000000     3.989000000
H    -5.333000000    -3.168000000     2.517000000
O     0.360000000     4.452000000     4.642000000
H     0.658000000     4.964000000     3.890000000
H     0.086000000     5.106000000     5.284000000
O     2.751000000    -5.420000000    -0.497000000
H     1.864000000    -5.163000000    -0.750000000
H     3.322000000    -4.849000000    -1.011000000
O     2.766000000    -0.945000000    -3.586000000
H     2.220000000    -1.725000000    -3.487000000
H     2.160000000    -0.213000000    -3.472000000
