161
-3030.43890
C    -0.141000000     0.964000000     1.060000000
H    -0.381000000     1.552000000     1.942000000
C    -1.137000000     0.557000000     0.207000000
H    -2.124000000     1.014000000     0.202000000
C    -0.916000000    -0.373000000    -0.803000000
C    -2.018000000    -0.870000000    -1.667000000
H    -1.642000000    -1.368000000    -2.564000000
H    -2.766000000    -1.482000000    -1.159000000
H    -2.511000000     0.023000000    -2.056000000
C     0.379000000    -0.915000000    -0.869000000
H     0.595000000    -1.728000000    -1.557000000
C     1.413000000    -0.465000000    -0.045000000
H     2.425000000    -0.812000000    -0.240000000
C     1.211000000     0.527000000     0.928000000
C     2.280000000     1.004000000     1.887000000
O     3.265000000     0.352000000     2.186000000
O     2.071000000     2.022000000     2.541000000
O    -0.036000000     5.879000000     1.986000000
H     0.574000000     5.245000000     1.608000000
H    -0.144000000     6.542000000     1.304000000
O     0.572000000     1.463000000    -3.780000000
H     1.116000000     0.729000000    -3.493000000
H     0.502000000     2.026000000    -3.009000000
O     0.520000000     2.333000000     4.830000000
H     1.090000000     2.530000000     5.573000000
H     1.066000000     1.813000000     4.240000000
O    -3.466000000     0.061000000    -6.139000000
H    -4.145000000     0.729000000    -6.232000000
H    -2.644000000     0.538000000    -6.256000000
O    -4.283000000     1.270000000     3.315000000
H    -3.813000000     1.197000000     4.145000000
H    -4.318000000     0.374000000     2.981000000
O     3.768000000    -4.242000000     0.286000000
H     4.131000000    -3.359000000     0.355000000
H     3.172000000    -4.198000000    -0.461000000
O    -0.975000000    -4.322000000    -2.706000000
H    -1.483000000    -4.889000000    -3.287000000
H    -1.572000000    -3.606000000    -2.489000000
O    -5.145000000     2.801000000     1.423000000
H    -4.766000000     2.311000000     2.153000000
H    -5.023000000     2.231000000     0.664000000
O     0.075000000    -1.254000000     5.031000000
H    -0.372000000    -0.447000000     5.286000000
H    -0.343000000    -1.936000000     5.557000000
O     4.530000000     6.747000000     2.755000000
H     3.989000000     5.999000000     3.010000000
H     5.057000000     6.424000000     2.025000000
O     4.888000000    -1.965000000     1.055000000
H     4.289000000    -1.268000000     1.325000000
H     5.592000000    -1.510000000     0.595000000
O    -3.954000000     2.166000000    -3.091000000
H    -4.457000000     2.950000000    -2.875000000
H    -3.804000000     1.737000000    -2.249000000
O     2.928000000    -0.435000000    -3.319000000
H     3.199000000     0.450000000    -3.072000000
H     3.683000000    -0.796000000    -3.783000000
O    -1.177000000    -3.278000000    -6.278000000
H    -0.312000000    -3.101000000    -5.907000000
H    -0.996000000    -3.681000000    -7.127000000
O    -2.129000000     3.226000000    -4.690000000
H    -3.013000000     2.943000000    -4.459000000
H    -1.667000000     2.417000000    -4.910000000
O    -0.806000000    -6.064000000     0.797000000
H    -0.219000000    -5.332000000     0.610000000
H    -1.357000000    -5.752000000     1.515000000
O    -6.620000000    -2.843000000    -2.840000000
H    -5.794000000    -3.296000000    -3.013000000
H    -6.834000000    -3.075000000    -1.936000000
O    -4.959000000     0.629000000    -0.742000000
H    -4.860000000    -0.143000000    -0.184000000
H    -5.859000000     0.578000000    -1.063000000
O     1.265000000    -1.699000000    -5.797000000
H     2.073000000    -2.142000000    -5.536000000
H     1.439000000    -0.771000000    -5.638000000
O    -2.306000000    -4.619000000     2.495000000
H    -2.044000000    -3.747000000     2.197000000
H    -2.238000000    -4.577000000     3.449000000
O     2.748000000     4.865000000    -1.847000000
H     2.574000000     4.684000000    -0.923000000
H     2.351000000     5.721000000    -2.002000000
O    -0.848000000     4.802000000     4.379000000
H    -0.544000000     5.114000000     3.527000000
H    -0.485000000     3.920000000     4.454000000
O    -4.173000000    -4.103000000    -3.238000000
H    -3.867000000    -3.484000000    -3.900000000
H    -3.578000000    -4.849000000    -3.314000000
O    -1.068000000    -1.876000000     2.184000000
H    -0.291000000    -1.390000000     2.461000000
H    -1.790000000    -1.259000000     2.296000000
O     1.297000000    -4.257000000     2.474000000
H     1.667000000    -3.483000000     2.898000000
H     1.124000000    -3.977000000     1.575000000
O     7.313000000     0.228000000     0.292000000
H     7.715000000     1.012000000    -0.083000000
H     6.607000000     0.562000000     0.845000000
O    -2.215000000     1.718000000     5.013000000
H    -1.398000000     2.166000000     4.794000000
H    -2.439000000     2.041000000     5.886000000
O    -4.302000000    -5.025000000     0.749000000
H    -3.677000000    -5.123000000     1.467000000
H    -5.124000000    -5.368000000     1.100000000
O     2.882000000     4.253000000     3.866000000
H     2.358000000     3.539000000     3.502000000
H     3.415000000     3.838000000     4.543000000
O     1.606000000    -4.908000000    -3.793000000
H     0.773000000    -4.793000000    -3.335000000
H     1.356000000    -5.120000000    -4.693000000
O    -4.960000000    -2.398000000    -0.029000000
H    -4.853000000    -3.345000000     0.063000000
H    -5.834000000    -2.220000000     0.319000000
O    -4.049000000    -1.390000000     2.366000000
H    -4.145000000    -2.124000000     2.973000000
H    -4.230000000    -1.767000000     1.505000000
O     6.504000000     2.451000000     3.787000000
H     7.281000000     2.319000000     3.244000000
H     6.756000000     2.119000000     4.649000000
O    -3.236000000     4.591000000     0.163000000
H    -3.721000000     3.973000000     0.710000000
H    -3.689000000     4.571000000    -0.681000000
O     2.236000000    -1.997000000     3.493000000
H     1.515000000    -1.961000000     4.122000000
H     2.793000000    -1.253000000     3.724000000
O    -3.679000000    -2.630000000    -5.326000000
H    -3.744000000    -1.675000000    -5.296000000
H    -2.827000000    -2.799000000    -5.728000000
O     5.938000000    -1.805000000     4.777000000
H     6.751000000    -1.508000000     4.368000000
H     5.353000000    -1.049000000     4.726000000
O     2.420000000     4.102000000     0.579000000
H     2.354000000     3.479000000     1.302000000
H     3.294000000     4.481000000     0.669000000
O     3.583000000     2.316000000    -2.788000000
H     4.327000000     2.688000000    -2.315000000
H     2.976000000     3.048000000    -2.894000000
O     5.192000000     1.807000000     1.425000000
H     5.414000000     2.385000000     2.155000000
H     4.418000000     1.330000000     1.723000000
O     2.801000000    -2.932000000    -2.033000000
H     2.756000000    -3.340000000    -2.898000000
H     2.852000000    -1.994000000    -2.213000000
O     3.011000000     2.471000000     6.331000000
H     2.621000000     2.138000000     7.140000000
H     3.341000000     3.339000000     6.565000000
O     4.278000000     0.487000000     4.630000000
H     3.839000000     0.561000000     3.783000000
H     3.914000000     1.201000000     5.153000000
O     5.836000000     2.914000000    -0.928000000
H     5.643000000     2.438000000    -0.120000000
H     6.684000000     2.572000000    -1.211000000
O     0.267000000     3.028000000    -1.008000000
H    -0.171000000     2.338000000    -0.510000000
H     1.092000000     3.171000000    -0.544000000
O     4.215000000    -4.054000000     4.142000000
H     3.652000000    -3.538000000     3.566000000
H     4.857000000    -3.427000000     4.475000000
O     0.620000000    -3.770000000    -0.185000000
H     0.292000000    -4.133000000    -1.007000000
H     0.501000000    -2.824000000    -0.276000000
O    -0.973000000     1.234000000    -5.924000000
H    -0.393000000     0.956000000    -6.633000000
H    -0.398000000     1.323000000    -5.164000000
