161
-3041.61036
C    -0.137000000    -0.182000000     1.523000000
H    -0.362000000    -0.212000000     2.586000000
C    -1.202000000    -0.393000000     0.558000000
H    -2.178000000    -0.710000000     0.917000000
C    -0.919000000    -0.215000000    -0.836000000
C    -1.918000000    -0.601000000    -1.926000000
H    -2.695000000    -1.256000000    -1.526000000
H    -2.357000000     0.298000000    -2.363000000
H    -1.411000000    -1.052000000    -2.782000000
C     0.343000000     0.260000000    -1.190000000
H     0.522000000     0.352000000    -2.258000000
C     1.362000000     0.414000000    -0.283000000
H     2.404000000     0.592000000    -0.537000000
C     1.090000000     0.283000000     1.108000000
C     2.226000000     0.663000000     2.079000000
O     3.207000000     1.193000000     1.670000000
O     2.033000000     0.563000000     3.267000000
O     1.140000000     5.110000000     0.418000000
H     1.870000000     4.699000000     0.881000000
H     0.771000000     4.408000000    -0.118000000
O     2.665000000     0.570000000    -6.239000000
H     3.307000000     1.187000000    -5.888000000
H     3.154000000     0.055000000    -6.881000000
O     1.249000000     2.724000000    -3.834000000
H     1.659000000     3.317000000    -3.205000000
H     1.942000000     2.527000000    -4.465000000
O     0.811000000     2.044000000     5.190000000
H     0.933000000     1.679000000     6.066000000
H     1.312000000     1.464000000     4.616000000
O     2.656000000     4.191000000     5.920000000
H     3.107000000     3.578000000     5.339000000
H     2.484000000     3.685000000     6.714000000
O    -4.144000000     3.429000000     3.436000000
H    -3.322000000     3.004000000     3.682000000
H    -4.653000000     2.737000000     3.013000000
O    -7.084000000    -1.591000000    -0.811000000
H    -6.471000000    -1.838000000    -0.118000000
H    -6.528000000    -1.413000000    -1.570000000
O     0.116000000    -0.997000000    -6.305000000
H     0.891000000    -0.518000000    -6.601000000
H     0.467000000    -1.728000000    -5.796000000
O    -3.161000000     3.071000000    -0.378000000
H    -2.867000000     3.839000000     0.112000000
H    -2.383000000     2.516000000    -0.442000000
O     1.160000000    -1.690000000     4.367000000
H     1.775000000    -1.835000000     5.085000000
H     1.392000000    -0.828000000     4.022000000
O    -1.699000000    -1.745000000    -8.164000000
H    -0.982000000    -2.250000000    -8.546000000
H    -1.363000000    -1.456000000    -7.315000000
O     4.779000000     5.668000000     2.797000000
H     4.403000000     4.826000000     3.053000000
H     5.291000000     5.473000000     2.012000000
O     1.727000000     2.503000000     7.966000000
H     1.486000000     2.918000000     8.794000000
H     1.530000000     1.575000000     8.096000000
O    -5.251000000    -1.567000000    -2.897000000
H    -4.700000000    -1.177000000    -3.576000000
H    -5.038000000    -2.500000000    -2.922000000
O     5.542000000     0.338000000     0.585000000
H     4.753000000     0.855000000     0.743000000
H     5.927000000     0.723000000    -0.203000000
O    -3.920000000    -0.822000000     4.165000000
H    -4.349000000    -1.608000000     4.503000000
H    -3.034000000    -1.109000000     3.945000000
O     3.642000000     1.384000000    -2.938000000
H     3.846000000     1.989000000    -3.651000000
H     3.221000000     1.930000000    -2.274000000
O    -3.233000000    -3.463000000    -4.544000000
H    -2.750000000    -2.667000000    -4.769000000
H    -2.605000000    -3.992000000    -4.052000000
O    -1.118000000    -4.529000000    -2.875000000
H    -1.100000000    -5.426000000    -2.541000000
H    -0.864000000    -3.990000000    -2.126000000
O    -0.436000000    -2.900000000    -0.783000000
H     0.466000000    -2.979000000    -0.472000000
H    -0.807000000    -2.186000000    -0.263000000
O    -5.233000000    -4.383000000    -1.713000000
H    -5.113000000    -3.710000000    -1.044000000
H    -4.781000000    -5.152000000    -1.364000000
O     6.161000000     3.558000000     1.494000000
H     7.055000000     3.490000000     1.158000000
H     6.264000000     3.597000000     2.444000000
O    -1.461000000    -1.790000000     4.083000000
H    -0.505000000    -1.738000000     4.111000000
H    -1.693000000    -2.337000000     4.834000000
O     4.480000000    -3.344000000    -1.053000000
H     4.502000000    -3.001000000    -0.159000000
H     4.179000000    -2.607000000    -1.585000000
O    -1.880000000     2.306000000     4.473000000
H    -1.712000000     3.138000000     4.917000000
H    -1.044000000     1.841000000     4.511000000
O    -0.223000000     2.217000000    -7.377000000
H     0.397000000     2.229000000    -6.648000000
H    -1.071000000     2.045000000    -6.968000000
O    -2.447000000    -3.536000000     1.989000000
H    -2.101000000    -2.670000000     2.203000000
H    -1.686000000    -4.030000000     1.684000000
O     4.187000000     3.059000000     3.701000000
H     3.664000000     2.349000000     3.330000000
H     4.832000000     2.618000000     4.254000000
O    -0.235000000     4.644000000     5.088000000
H     0.438000000     5.262000000     4.804000000
H     0.187000000     3.786000000     5.026000000
O    -4.935000000    -3.034000000     1.044000000
H    -5.262000000    -3.154000000     1.935000000
H    -4.012000000    -3.284000000     1.091000000
O     7.936000000    -0.538000000     1.667000000
H     7.892000000    -1.322000000     2.215000000
H     7.022000000    -0.300000000     1.517000000
O    -4.685000000     0.985000000     2.294000000
H    -3.983000000     1.013000000     1.644000000
H    -4.355000000     0.401000000     2.978000000
O     0.848000000    -3.810000000     2.681000000
H     0.459000000    -4.353000000     3.366000000
H     1.004000000    -2.966000000     3.104000000
O    -3.762000000    -0.301000000    -4.823000000
H    -4.491000000     0.183000000    -5.209000000
H    -3.012000000     0.287000000    -4.907000000
O     4.659000000    -2.109000000     1.480000000
H     4.939000000    -1.273000000     1.107000000
H     4.817000000    -2.016000000     2.420000000
O     2.979000000     3.851000000    -2.022000000
H     3.029000000     3.825000000    -1.066000000
H     3.349000000     4.701000000    -2.258000000
O     3.594000000     3.540000000     0.581000000
H     4.535000000     3.666000000     0.699000000
H     3.419000000     2.676000000     0.953000000
O     2.954000000    -1.528000000    -3.207000000
H     2.400000000    -1.684000000    -3.971000000
H     3.114000000    -0.584000000    -3.216000000
O    -3.803000000    -6.001000000    -0.071000000
H    -3.025000000    -5.537000000     0.238000000
H    -4.439000000    -5.902000000     0.637000000
O     5.661000000     1.147000000     5.736000000
H     6.615000000     1.094000000     5.792000000
H     5.348000000     0.610000000     6.464000000
O     3.358000000    -1.916000000     6.028000000
H     3.910000000    -1.915000000     5.246000000
H     3.909000000    -1.534000000     6.711000000
O     4.761000000    -0.659000000     3.992000000
H     3.943000000    -0.342000000     3.611000000
H     5.189000000     0.128000000     4.330000000
O    -3.597000000     0.476000000     6.681000000
H    -3.237000000     1.307000000     6.372000000
H    -3.808000000    -0.006000000     5.881000000
O    -0.364000000     3.026000000    -0.598000000
H     0.149000000     2.249000000    -0.375000000
H    -0.296000000     3.093000000    -1.550000000
O     0.381000000    -3.804000000    -4.999000000
H     0.570000000    -4.482000000    -5.648000000
H    -0.092000000    -4.262000000    -4.305000000
O    -1.036000000     1.172000000    -4.757000000
H    -0.650000000     0.417000000    -5.201000000
H    -0.299000000     1.590000000    -4.311000000
O    -6.102000000     2.785000000    -0.795000000
H    -6.346000000     3.654000000    -0.476000000
H    -5.151000000     2.751000000    -0.695000000
O    -7.129000000     1.014000000     1.241000000
H    -6.874000000     1.502000000     0.458000000
H    -6.300000000     0.774000000     1.654000000
