161
-3025.04193
C     0.424000000     0.024000000     1.425000000
H     0.689000000     0.003000000     2.480000000
C    -0.651000000    -0.727000000     1.017000000
H    -1.199000000    -1.295000000     1.764000000
C    -0.971000000    -0.688000000    -0.361000000
C    -1.977000000    -1.607000000    -1.009000000
H    -1.560000000    -2.598000000    -1.199000000
H    -2.825000000    -1.605000000    -0.321000000
H    -2.221000000    -1.152000000    -1.971000000
C    -0.272000000     0.186000000    -1.268000000
H    -0.603000000     0.244000000    -2.301000000
C     0.863000000     0.886000000    -0.826000000
H     1.413000000     1.583000000    -1.452000000
C     1.198000000     0.785000000     0.547000000
C     2.235000000     1.741000000     1.013000000
O     2.932000000     2.451000000     0.261000000
O     2.521000000     1.765000000     2.196000000
O    -0.635000000     4.453000000    -1.461000000
H     0.237000000     4.843000000    -1.528000000
H    -0.762000000     4.005000000    -2.298000000
O     1.652000000    -1.120000000    -5.924000000
H     1.786000000    -0.290000000    -5.467000000
H     1.253000000    -0.873000000    -6.759000000
O    -1.832000000     0.691000000    -4.970000000
H    -1.360000000     0.629000000    -5.800000000
H    -2.289000000    -0.147000000    -4.891000000
O     2.484000000    -1.981000000     5.953000000
H     2.600000000    -1.182000000     6.467000000
H     2.815000000    -1.757000000     5.083000000
O     4.727000000     4.247000000     5.679000000
H     3.884000000     3.876000000     5.422000000
H     4.777000000     5.078000000     5.207000000
O    -0.002000000    -7.107000000     0.137000000
H    -0.728000000    -6.644000000     0.554000000
H     0.780000000    -6.643000000     0.435000000
O     1.669000000     3.904000000    -5.303000000
H     2.329000000     4.570000000    -5.501000000
H     0.957000000     4.083000000    -5.916000000
O     6.838000000     4.120000000     0.146000000
H     7.229000000     4.957000000    -0.107000000
H     7.303000000     3.470000000    -0.382000000
O    -5.933000000    -5.235000000    -0.123000000
H    -5.012000000    -5.059000000     0.070000000
H    -6.105000000    -6.084000000     0.283000000
O    -2.130000000     3.112000000     5.322000000
H    -1.291000000     2.666000000     5.442000000
H    -2.665000000     2.487000000     4.831000000
O    -0.904000000    -2.755000000    -6.125000000
H    -0.200000000    -2.137000000    -5.931000000
H    -0.805000000    -2.947000000    -7.058000000
O    -4.673000000     0.627000000     1.027000000
H    -5.386000000     1.241000000     0.850000000
H    -3.889000000     1.175000000     1.059000000
O     1.141000000    -2.728000000     3.256000000
H     1.730000000    -1.983000000     3.134000000
H     0.577000000    -2.470000000     3.986000000
O    -3.330000000    -1.933000000    -5.247000000
H    -3.956000000    -2.480000000    -5.719000000
H    -2.475000000    -2.303000000    -5.466000000
O    -0.847000000     4.687000000     1.499000000
H    -0.181000000     4.069000000     1.799000000
H    -0.714000000     4.743000000     0.553000000
O     0.191000000     1.719000000     5.484000000
H     0.874000000     1.862000000     6.139000000
H    -0.330000000     0.997000000     5.836000000
O     5.346000000     1.179000000    -0.375000000
H     4.491000000     1.541000000    -0.141000000
H     5.644000000     1.722000000    -1.105000000
O    -0.078000000    -1.398000000     5.846000000
H     0.862000000    -1.567000000     5.921000000
H    -0.484000000    -2.052000000     6.416000000
O    -2.785000000    -1.388000000     4.669000000
H    -1.837000000    -1.330000000     4.552000000
H    -2.934000000    -2.282000000     4.977000000
O     3.803000000    -0.518000000    -2.569000000
H     4.670000000    -0.128000000    -2.453000000
H     3.897000000    -1.086000000    -3.333000000
O    -0.897000000    -5.167000000    -3.311000000
H    -1.804000000    -4.875000000    -3.218000000
H    -0.942000000    -6.119000000    -3.223000000
O     4.764000000     3.654000000    -1.478000000
H     3.936000000     3.274000000    -1.187000000
H     5.222000000     3.880000000    -0.668000000
O    -3.283000000    -4.950000000    -0.212000000
H    -2.421000000    -4.700000000     0.120000000
H    -3.169000000    -4.996000000    -1.162000000
O     0.110000000    -5.251000000     3.705000000
H     0.330000000    -5.413000000     4.623000000
H     0.669000000    -4.516000000     3.451000000
O    -3.136000000     1.177000000     3.713000000
H    -2.873000000     1.399000000     2.820000000
H    -3.018000000     0.228000000     3.768000000
O    -3.581000000    -4.293000000    -3.363000000
H    -3.620000000    -4.031000000    -4.282000000
H    -4.212000000    -3.722000000    -2.924000000
O     2.891000000     2.312000000     4.805000000
H     2.725000000     1.947000000     3.936000000
H     2.888000000     1.553000000     5.388000000
O     0.566000000     3.586000000     3.582000000
H     0.537000000     2.745000000     4.039000000
H     1.445000000     3.624000000     3.206000000
O    -5.494000000    -3.090000000    -1.635000000
H    -6.403000000    -2.978000000    -1.912000000
H    -5.468000000    -3.966000000    -1.250000000
O     5.348000000    -0.465000000     1.764000000
H     5.248000000    -1.246000000     1.221000000
H     5.514000000     0.242000000     1.140000000
O     5.536000000    -0.999000000     5.611000000
H     6.194000000    -1.608000000     5.275000000
H     4.985000000    -0.799000000     4.855000000
O    -5.398000000    -1.587000000     2.468000000
H    -5.047000000    -0.859000000     1.956000000
H    -4.687000000    -1.828000000     3.061000000
O     5.780000000     2.741000000     2.485000000
H     5.968000000     2.925000000     1.564000000
H     4.832000000     2.850000000     2.562000000
O    -0.797000000    -4.426000000     0.965000000
H    -0.401000000    -4.561000000     1.826000000
H    -0.366000000    -3.643000000     0.624000000
O    -4.579000000    -0.736000000    -3.027000000
H    -4.041000000    -1.139000000    -3.708000000
H    -4.777000000    -1.452000000    -2.423000000
O    -0.808000000     2.868000000    -3.573000000
H    -1.500000000     2.238000000    -3.773000000
H    -0.058000000     2.573000000    -4.089000000
O     2.093000000     1.262000000    -4.812000000
H     2.994000000     1.336000000    -4.500000000
H     1.885000000     2.132000000    -5.153000000
O     2.901000000     4.582000000     2.061000000
H     2.620000000     5.284000000     1.474000000
H     2.960000000     3.810000000     1.499000000
O     1.709000000    -1.783000000    -1.363000000
H     1.191000000    -1.162000000    -0.850000000
H     2.312000000    -1.234000000    -1.864000000
O    -3.057000000    -5.180000000     2.761000000
H    -3.002000000    -4.911000000     1.844000000
H    -2.671000000    -6.056000000     2.777000000
O     3.254000000    -0.713000000     3.400000000
H     2.956000000     0.145000000     3.100000000
H     4.167000000    -0.763000000     3.118000000
O    -3.504000000    -4.043000000     4.936000000
H    -4.273000000    -4.578000000     5.134000000
H    -3.177000000    -4.391000000     4.106000000
O     5.552000000     5.694000000     2.382000000
H     5.917000000     4.990000000     1.845000000
H     4.609000000     5.533000000     2.379000000
O    -2.538000000     2.056000000     0.981000000
H    -2.189000000     2.849000000     1.388000000
H    -1.885000000     1.819000000     0.321000000
O     1.737000000    -4.135000000    -2.777000000
H     2.050000000    -3.376000000    -2.285000000
H     0.783000000    -4.057000000    -2.755000000
O    -3.748000000     2.117000000    -3.335000000
H    -3.993000000     1.354000000    -2.811000000
H    -3.365000000     1.747000000    -4.131000000
O     2.329000000     4.691000000    -2.731000000
H     2.115000000     4.381000000    -3.610000000
H     3.281000000     4.607000000    -2.672000000
O     1.984000000     6.368000000    -0.249000000
H     1.657000000     7.239000000    -0.474000000
H     2.434000000     6.069000000    -1.039000000
