161
-3093.01031
C    -0.645000000     1.138000000     0.637000000
H    -1.172000000     2.032000000     0.960000000
C    -0.742000000     0.712000000    -0.745000000
H    -1.435000000     1.301000000    -1.341000000
C    -0.022000000    -0.330000000    -1.255000000
C    -0.287000000    -0.617000000    -2.653000000
H    -1.261000000    -0.264000000    -2.997000000
H     0.454000000    -0.282000000    -3.381000000
H    -0.383000000    -1.700000000    -2.753000000
C     0.763000000    -1.050000000    -0.343000000
H     1.379000000    -1.884000000    -0.672000000
C     0.839000000    -0.761000000     1.071000000
H     1.516000000    -1.348000000     1.687000000
C     0.152000000     0.394000000     1.561000000
C     0.196000000     0.739000000     3.013000000
O     0.955000000     0.119000000     3.757000000
O    -0.306000000     1.798000000     3.458000000
O     1.163000000    -4.767000000    -6.470000000
H     0.818000000    -3.912000000    -6.214000000
H     0.404000000    -5.350000000    -6.445000000
O     1.228000000    -1.580000000    -7.802000000
H     0.746000000    -2.066000000    -7.133000000
H     0.547000000    -1.210000000    -8.365000000
O    -2.110000000     0.614000000    -8.349000000
H    -2.826000000     0.020000000    -8.575000000
H    -1.801000000     0.304000000    -7.498000000
O    -4.622000000     3.961000000     0.909000000
H    -4.546000000     3.565000000     0.041000000
H    -4.079000000     3.410000000     1.472000000
O    -5.563000000    -0.679000000    -5.886000000
H    -4.776000000    -0.470000000    -5.383000000
H    -5.492000000    -0.142000000    -6.676000000
O     3.890000000    -3.601000000     0.198000000
H     3.945000000    -4.554000000     0.128000000
H     4.785000000    -3.298000000     0.047000000
O    -1.181000000     2.643000000     5.956000000
H    -0.767000000     2.236000000     5.195000000
H    -1.650000000     3.397000000     5.598000000
O     1.856000000    -4.100000000    -2.120000000
H     2.044000000    -4.261000000    -3.045000000
H     2.255000000    -3.250000000    -1.939000000
O    -2.482000000    -3.343000000     3.911000000
H    -1.563000000    -3.313000000     4.176000000
H    -2.882000000    -2.591000000     4.347000000
O     3.564000000    -1.721000000    -6.159000000
H     2.904000000    -1.392000000    -6.769000000
H     3.478000000    -2.673000000    -6.204000000
O    -0.715000000    -2.543000000    -5.689000000
H    -1.526000000    -2.913000000    -5.340000000
H    -0.874000000    -1.599000000    -5.714000000
O    -5.459000000     2.050000000     2.882000000
H    -4.590000000     2.048000000     3.284000000
H    -5.882000000     1.262000000     3.224000000
O    -2.127000000     0.437000000     6.970000000
H    -1.278000000     0.026000000     6.806000000
H    -2.018000000     1.340000000     6.671000000
O     3.250000000    -1.792000000    -2.886000000
H     4.201000000    -1.754000000    -2.988000000
H     2.934000000    -0.983000000    -3.289000000
O     0.672000000     6.192000000     4.527000000
H     0.193000000     5.690000000     3.868000000
H     1.201000000     6.808000000     4.021000000
O    -2.089000000    -3.650000000     1.294000000
H    -1.215000000    -4.037000000     1.232000000
H    -2.299000000    -3.683000000     2.228000000
O     4.736000000    -1.145000000     2.707000000
H     4.339000000    -0.288000000     2.555000000
H     4.465000000    -1.672000000     1.955000000
O    -5.467000000     1.502000000    -2.174000000
H    -6.380000000     1.321000000    -2.397000000
H    -5.481000000     1.681000000    -1.234000000
O     1.890000000     4.165000000     0.438000000
H     2.421000000     4.268000000     1.228000000
H     1.332000000     4.943000000     0.421000000
O     3.394000000     2.064000000     5.735000000
H     3.274000000     3.007000000     5.854000000
H     3.954000000     1.799000000     6.464000000
O    -1.434000000    -5.466000000    -2.321000000
H    -1.824000000    -6.022000000    -1.646000000
H    -0.662000000    -5.086000000    -1.902000000
O     0.799000000     2.015000000    -4.712000000
H     1.634000000     1.588000000    -4.520000000
H     0.608000000     2.530000000    -3.928000000
O     0.017000000    -3.672000000     4.646000000
H     0.742000000    -3.049000000     4.666000000
H     0.398000000    -4.472000000     4.282000000
O    -1.380000000     0.332000000    -5.698000000
H    -2.051000000     0.281000000    -5.017000000
H    -0.737000000     0.953000000    -5.354000000
O    -0.212000000     4.517000000    -2.998000000
H    -1.080000000     4.725000000    -3.346000000
H     0.396000000     4.941000000    -3.604000000
O    -3.350000000    -3.408000000    -5.028000000
H    -3.583000000    -3.157000000    -4.134000000
H    -3.904000000    -2.858000000    -5.582000000
O     3.486000000     1.209000000     3.270000000
H     2.583000000     0.890000000     3.252000000
H     3.647000000     1.420000000     4.190000000
O    -4.247000000    -2.210000000    -2.464000000
H    -3.856000000    -2.118000000    -1.595000000
H    -5.182000000    -2.064000000    -2.322000000
O    -2.667000000     2.763000000     2.919000000
H    -2.652000000     3.541000000     3.476000000
H    -1.807000000     2.362000000     3.044000000
O     3.088000000     4.715000000     2.896000000
H     2.813000000     4.236000000     3.677000000
H     3.811000000     4.199000000     2.540000000
O     0.831000000     0.098000000     6.604000000
H     0.903000000     0.114000000     5.649000000
H     1.472000000     0.742000000     6.903000000
O    -0.955000000     2.667000000     8.709000000
H    -0.865000000     2.675000000     7.756000000
H    -1.894000000     2.767000000     8.862000000
O     1.853000000     2.193000000    -1.431000000
H     1.894000000     2.828000000    -0.716000000
H     1.100000000     1.642000000    -1.220000000
O     2.754000000    -6.101000000    -0.208000000
H     2.326000000    -5.261000000    -0.368000000
H     2.655000000    -6.581000000    -1.030000000
O    -3.688000000     0.022000000    -3.788000000
H    -4.511000000     0.383000000    -3.459000000
H    -3.549000000    -0.770000000    -3.270000000
O    -1.366000000     4.235000000    -0.273000000
H    -1.976000000     3.593000000    -0.636000000
H    -0.723000000     4.374000000    -0.969000000
O     0.541000000    -4.583000000     1.080000000
H     0.953000000    -3.744000000     0.871000000
H     0.960000000    -4.858000000     1.896000000
O     2.420000000    -4.736000000     2.945000000
H     3.294000000    -5.087000000     3.113000000
H     2.439000000    -3.855000000     3.319000000
O    -0.088000000     4.420000000     2.612000000
H    -0.300000000     3.565000000     2.986000000
H     0.462000000     4.220000000     1.855000000
O    -2.555000000     5.814000000     1.913000000
H    -3.204000000     5.233000000     1.516000000
H    -1.714000000     5.393000000     1.733000000
O    -3.159000000    -1.315000000    -0.227000000
H    -2.430000000    -0.753000000    -0.490000000
H    -2.743000000    -2.068000000     0.190000000
O    -0.064000000    -2.008000000     8.183000000
H    -0.003000000    -2.743000000     7.573000000
H     0.256000000    -1.256000000     7.684000000
O     4.004000000     0.161000000    -0.282000000
H     4.013000000    -0.719000000    -0.660000000
H     3.110000000     0.473000000    -0.423000000
O    -3.471000000     4.405000000     5.116000000
H    -3.706000000     5.254000000     4.740000000
H    -4.159000000     4.229000000     5.758000000
O    -6.266000000     1.388000000     0.418000000
H    -7.131000000     1.767000000     0.573000000
H    -5.688000000     1.858000000     1.020000000
O     2.355000000    -2.023000000     4.362000000
H     1.815000000    -1.233000000     4.314000000
H     3.142000000    -1.747000000     4.832000000
O    -3.149000000     3.133000000    -1.982000000
H    -3.579000000     3.919000000    -2.318000000
H    -3.736000000     2.417000000    -2.224000000
O     3.174000000     0.853000000    -3.686000000
H     3.015000000     1.134000000    -2.785000000
H     3.764000000     1.516000000    -4.044000000
