161
-3030.21640
C    -0.931000000     0.936000000     0.723000000
H    -1.662000000     1.629000000     1.134000000
C    -0.558000000     1.090000000    -0.621000000
H    -0.978000000     1.832000000    -1.296000000
C     0.248000000     0.107000000    -1.205000000
C     0.736000000     0.159000000    -2.651000000
H     1.791000000    -0.118000000    -2.612000000
H     0.154000000    -0.497000000    -3.302000000
H     0.578000000     1.166000000    -3.044000000
C     0.743000000    -0.982000000    -0.399000000
H     1.482000000    -1.654000000    -0.827000000
C     0.512000000    -1.016000000     0.974000000
H     0.955000000    -1.841000000     1.526000000
C    -0.427000000    -0.116000000     1.526000000
C    -0.762000000    -0.195000000     2.967000000
O    -0.540000000    -1.183000000     3.610000000
O    -1.342000000     0.683000000     3.501000000
O     5.155000000    -3.726000000     2.154000000
H     5.787000000    -3.355000000     2.769000000
H     5.616000000    -4.461000000     1.750000000
O     3.712000000     3.177000000    -0.318000000
H     3.350000000     2.292000000    -0.279000000
H     4.660000000     3.049000000    -0.324000000
O    -1.574000000    -3.991000000     6.131000000
H    -2.345000000    -3.441000000     6.271000000
H    -1.551000000    -4.135000000     5.185000000
O    -3.689000000    -2.039000000     6.307000000
H    -2.877000000    -1.645000000     5.987000000
H    -4.110000000    -1.344000000     6.813000000
O    -6.626000000     0.432000000     0.131000000
H    -6.071000000     1.185000000     0.337000000
H    -7.349000000     0.489000000     0.755000000
O    -1.461000000    -2.114000000     8.523000000
H    -1.342000000    -1.600000000     7.725000000
H    -0.721000000    -1.870000000     9.078000000
O     0.261000000     1.894000000     6.217000000
H    -0.637000000     2.216000000     6.139000000
H     0.805000000     2.631000000     5.940000000
O    -1.139000000    -0.740000000     6.054000000
H    -0.705000000     0.112000000     6.094000000
H    -1.163000000    -0.952000000     5.121000000
O     2.395000000     6.378000000    -2.483000000
H     1.808000000     5.626000000    -2.566000000
H     3.273000000     5.997000000    -2.481000000
O     1.118000000    -1.413000000    -5.886000000
H     1.758000000    -1.951000000    -5.421000000
H     1.593000000    -0.612000000    -6.108000000
O     1.937000000    -1.760000000     7.310000000
H     1.803000000    -1.996000000     8.228000000
H     1.454000000    -0.941000000     7.200000000
O    -3.159000000    -2.462000000    -2.333000000
H    -3.627000000    -2.243000000    -3.139000000
H    -3.402000000    -1.769000000    -1.719000000
O    -3.306000000     3.463000000    -1.145000000
H    -2.446000000     3.521000000    -1.561000000
H    -3.712000000     2.692000000    -1.540000000
O    -5.041000000    -0.212000000     3.856000000
H    -4.410000000     0.416000000     4.206000000
H    -4.506000000    -0.862000000     3.400000000
O     3.730000000     0.871000000     5.330000000
H     3.621000000     1.191000000     4.435000000
H     3.088000000     0.166000000     5.412000000
O    -0.892000000    -5.243000000     3.081000000
H    -0.232000000    -4.630000000     2.756000000
H    -1.681000000    -4.711000000     3.185000000
O     3.941000000     0.277000000     0.222000000
H     4.890000000     0.167000000     0.168000000
H     3.606000000    -0.607000000     0.372000000
O    -1.480000000    -1.637000000    -6.595000000
H    -1.489000000    -2.546000000    -6.897000000
H    -0.619000000    -1.528000000    -6.190000000
O    -5.557000000     3.404000000     4.640000000
H    -5.720000000     4.030000000     3.934000000
H    -4.628000000     3.189000000     4.560000000
O     1.428000000    -4.345000000    -0.231000000
H     1.396000000    -5.064000000     0.400000000
H     0.596000000    -4.400000000    -0.700000000
O     0.807000000     4.660000000     5.394000000
H     0.323000000     4.230000000     4.689000000
H     0.985000000     5.539000000     5.060000000
O     3.212000000    -2.209000000     0.644000000
H     2.618000000    -2.885000000     0.318000000
H     3.959000000    -2.696000000     0.993000000
O    -0.415000000     5.179000000    -6.663000000
H     0.485000000     5.021000000    -6.948000000
H    -0.477000000     4.741000000    -5.814000000
O     2.950000000    -3.318000000    -4.749000000
H     3.775000000    -3.288000000    -5.234000000
H     3.211000000    -3.482000000    -3.843000000
O     3.597000000     2.152000000     2.709000000
H     3.805000000     1.435000000     2.110000000
H     2.741000000     2.468000000     2.417000000
O    -2.943000000    -3.061000000     0.851000000
H    -3.336000000    -2.293000000     0.435000000
H    -2.049000000    -3.086000000     0.511000000
O    -2.788000000     4.768000000     3.179000000
H    -2.354000000     4.023000000     3.596000000
H    -2.232000000     4.978000000     2.428000000
O    -3.167000000     2.078000000     4.578000000
H    -2.843000000     1.980000000     5.473000000
H    -2.642000000     1.464000000     4.064000000
O     1.757000000    -2.277000000     4.611000000
H     1.630000000    -2.195000000     5.556000000
H     0.900000000    -2.078000000     4.235000000
O    -2.486000000    -2.882000000     3.478000000
H    -1.807000000    -2.208000000     3.475000000
H    -2.606000000    -3.105000000     2.555000000
O    -0.919000000    -3.688000000    -1.432000000
H    -0.458000000    -2.862000000    -1.285000000
H    -1.750000000    -3.430000000    -1.832000000
O    -5.553000000     4.305000000    -0.168000000
H    -6.300000000     4.319000000    -0.766000000
H    -4.851000000     3.891000000    -0.670000000
O    -4.833000000     1.738000000    -2.266000000
H    -5.571000000     2.129000000    -2.733000000
H    -4.955000000     0.794000000    -2.373000000
O     1.073000000     4.264000000    -4.179000000
H     1.586000000     4.911000000    -4.664000000
H     1.314000000     3.425000000    -4.571000000
O     1.596000000    -6.306000000     1.655000000
H     1.047000000    -6.927000000     2.135000000
H     1.753000000    -5.596000000     2.278000000
O    -2.676000000     2.304000000     7.241000000
H    -2.333000000     1.855000000     8.014000000
H    -3.156000000     3.054000000     7.593000000
O     1.918000000     1.606000000    -5.422000000
H     2.157000000     1.988000000    -6.267000000
H     2.755000000     1.423000000    -4.997000000
O    -0.383000000     3.114000000     3.532000000
H    -0.578000000     3.576000000     2.716000000
H    -0.840000000     2.277000000     3.448000000
O    -3.876000000     6.429000000    -1.275000000
H    -3.245000000     5.735000000    -1.465000000
H    -4.467000000     6.044000000    -0.628000000
O    -3.861000000    -0.834000000    -0.271000000
H    -3.185000000    -0.163000000    -0.172000000
H    -4.674000000    -0.393000000    -0.024000000
O     4.777000000    -1.432000000    -2.587000000
H     4.033000000    -2.035000000    -2.594000000
H     5.393000000    -1.818000000    -1.964000000
O    -4.483000000     2.008000000     1.227000000
H    -3.888000000     2.133000000     1.966000000
H    -5.191000000     2.633000000     1.380000000
O     3.460000000    -3.708000000    -2.168000000
H     2.859000000    -3.867000000    -1.441000000
H     4.265000000    -4.160000000    -1.916000000
O    -0.961000000     1.527000000    -5.876000000
H    -0.178000000     1.723000000    -5.362000000
H    -1.507000000     1.003000000    -5.290000000
O     2.413000000    -4.198000000     2.971000000
H     3.332000000    -4.075000000     2.733000000
H     2.221000000    -3.476000000     3.568000000
O    -1.459000000     4.185000000     0.830000000
H    -0.738000000     4.461000000     0.265000000
H    -2.161000000     3.948000000     0.223000000
O    -0.996000000     4.349000000    -2.392000000
H    -0.971000000     5.259000000    -2.099000000
H    -0.245000000     4.266000000    -2.981000000
O     4.189000000     0.870000000    -4.203000000
H     4.461000000     0.159000000    -3.622000000
H     4.557000000     1.658000000    -3.804000000
