161
-3040.02172
C    -0.340000000     1.041000000     0.989000000
H    -0.523000000     1.929000000     1.588000000
C    -0.801000000     1.019000000    -0.328000000
H    -1.398000000     1.834000000    -0.728000000
C    -0.380000000    -0.008000000    -1.164000000
C    -0.667000000     0.097000000    -2.633000000
H    -0.201000000    -0.662000000    -3.265000000
H    -1.718000000    -0.048000000    -2.892000000
H    -0.327000000     1.080000000    -2.968000000
C     0.432000000    -1.052000000    -0.691000000
H     0.913000000    -1.807000000    -1.309000000
C     0.710000000    -1.098000000     0.651000000
H     1.193000000    -1.966000000     1.091000000
C     0.347000000    -0.071000000     1.527000000
C     0.849000000    -0.076000000     2.964000000
O     1.408000000    -1.008000000     3.437000000
O     0.510000000     0.796000000     3.733000000
O     4.224000000    -4.404000000     0.855000000
H     4.995000000    -4.219000000     1.392000000
H     4.186000000    -5.359000000     0.813000000
O     5.994000000    -2.147000000     2.775000000
H     5.082000000    -2.068000000     3.056000000
H     6.105000000    -3.078000000     2.584000000
O    -2.835000000    -3.963000000     4.089000000
H    -2.518000000    -3.332000000     3.443000000
H    -2.693000000    -4.817000000     3.678000000
O    -5.540000000     0.515000000     0.663000000
H    -6.000000000     0.277000000     1.468000000
H    -4.736000000    -0.005000000     0.683000000
O     0.425000000     4.344000000    -2.739000000
H    -0.291000000     4.248000000    -2.111000000
H    -0.010000000     4.457000000    -3.584000000
O    -4.415000000    -0.685000000     3.460000000
H    -5.107000000    -1.110000000     3.965000000
H    -3.689000000    -0.594000000     4.077000000
O    -3.493000000    -1.358000000    -5.092000000
H    -3.649000000    -0.749000000    -4.370000000
H    -3.702000000    -2.219000000    -4.728000000
O    -1.845000000    -1.173000000     4.295000000
H    -1.678000000    -1.364000000     5.218000000
H    -1.098000000    -0.641000000     4.022000000
O     3.760000000     0.484000000     2.019000000
H     3.081000000    -0.093000000     2.369000000
H     3.536000000     0.585000000     1.094000000
O    -0.239000000     4.390000000    -5.634000000
H     0.348000000     3.634000000    -5.658000000
H    -0.066000000     4.854000000    -6.453000000
O    -0.420000000    -1.393000000    -6.152000000
H    -1.322000000    -1.714000000    -6.162000000
H     0.107000000    -2.149000000    -6.412000000
O    -2.063000000    -2.712000000    -2.894000000
H    -1.733000000    -2.111000000    -3.562000000
H    -1.985000000    -3.579000000    -3.292000000
O     3.129000000    -2.551000000     6.783000000
H     2.478000000    -3.091000000     7.229000000
H     2.653000000    -1.759000000     6.532000000
O    -4.054000000    -2.458000000    -1.060000000
H    -3.368000000    -2.603000000    -1.712000000
H    -3.769000000    -1.679000000    -0.581000000
O    -4.435000000     0.829000000    -3.751000000
H    -3.761000000     1.504000000    -3.833000000
H    -5.070000000     1.040000000    -4.436000000
O     1.815000000    -0.338000000     5.948000000
H     1.508000000    -0.234000000     5.047000000
H     2.352000000     0.437000000     6.109000000
O     0.340000000    -6.284000000     4.814000000
H    -0.091000000    -6.532000000     3.996000000
H     0.272000000    -5.330000000     4.841000000
O     4.839000000    -1.781000000    -0.740000000
H     4.519000000    -2.469000000    -0.157000000
H     4.333000000    -1.006000000    -0.497000000
O    -3.127000000     0.599000000     7.027000000
H    -2.317000000     0.143000000     7.256000000
H    -2.840000000     1.348000000     6.505000000
O     1.367000000    -6.638000000    -0.214000000
H     2.303000000    -6.517000000    -0.055000000
H     1.096000000    -5.840000000    -0.668000000
O     3.261000000    -4.461000000    -1.609000000
H     3.494000000    -4.433000000    -0.681000000
H     4.101000000    -4.483000000    -2.067000000
O     0.674000000    -4.032000000    -6.188000000
H     1.563000000    -4.368000000    -6.297000000
H     0.623000000    -3.779000000    -5.266000000
O     2.829000000     0.842000000    -0.566000000
H     2.120000000     0.744000000    -1.202000000
H     3.119000000     1.748000000    -0.668000000
O    -0.615000000    -4.917000000    -1.215000000
H    -1.279000000    -5.601000000    -1.127000000
H    -1.059000000    -4.212000000    -1.686000000
O     0.219000000     4.383000000     6.461000000
H     0.779000000     4.159000000     5.718000000
H    -0.141000000     5.242000000     6.239000000
O    -1.248000000     1.999000000     5.421000000
H    -0.668000000     2.657000000     5.806000000
H    -0.689000000     1.512000000     4.816000000
O    -4.453000000    -0.646000000    -7.495000000
H    -4.099000000    -0.973000000    -6.668000000
H    -5.357000000    -0.409000000    -7.291000000
O     3.604000000     3.239000000     3.474000000
H     4.539000000     3.394000000     3.339000000
H     3.367000000     2.602000000     2.801000000
O     3.572000000    -2.479000000     3.910000000
H     3.727000000    -2.521000000     4.853000000
H     2.871000000    -1.834000000     3.812000000
O     0.698000000    -3.534000000     4.597000000
H     1.611000000    -3.341000000     4.812000000
H     0.389000000    -2.751000000     4.141000000
O     1.050000000     3.522000000     4.060000000
H     0.961000000     2.582000000     3.904000000
H     1.978000000     3.703000000     3.910000000
O    -4.505000000     3.064000000     0.668000000
H    -4.612000000     2.113000000     0.658000000
H    -5.387000000     3.402000000     0.822000000
O    -0.057000000     1.254000000    -6.955000000
H     0.572000000     1.395000000    -6.247000000
H    -0.395000000     0.372000000    -6.803000000
O     1.819000000     2.540000000    -5.052000000
H     1.930000000     1.655000000    -4.707000000
H     2.389000000     3.083000000    -4.507000000
O    -1.439000000     4.898000000    -0.785000000
H    -2.172000000     5.503000000    -0.677000000
H    -0.900000000     5.034000000    -0.006000000
O    -0.294000000     4.310000000     1.891000000
H     0.073000000     3.880000000     2.664000000
H     0.390000000     4.916000000     1.607000000
O    -4.861000000     4.705000000    -1.872000000
H    -4.464000000     4.024000000    -1.329000000
H    -5.687000000     4.909000000    -1.434000000
O     3.360000000     1.716000000     6.263000000
H     4.072000000     1.746000000     5.625000000
H     2.878000000     2.531000000     6.122000000
O    -3.183000000    -0.621000000     0.762000000
H    -3.243000000    -0.787000000     1.703000000
H    -2.325000000    -0.213000000     0.645000000
O    -6.364000000     0.069000000    -1.881000000
H    -6.095000000    -0.087000000    -0.976000000
H    -5.555000000     0.307000000    -2.334000000
O     3.935000000    -2.676000000    -4.696000000
H     4.800000000    -2.985000000    -4.427000000
H     3.539000000    -3.428000000    -5.137000000
O    -3.522000000     2.415000000     4.001000000
H    -2.892000000     2.253000000     4.703000000
H    -3.103000000     3.077000000     3.451000000
O     1.313000000    -3.198000000    -3.352000000
H     2.147000000    -2.811000000    -3.617000000
H     1.522000000    -3.708000000    -2.570000000
O     3.313000000    -6.446000000     3.733000000
H     3.229000000    -5.554000000     3.395000000
H     2.771000000    -6.976000000     3.147000000
O    -0.649000000    -1.080000000     7.340000000
H     0.275000000    -0.964000000     7.116000000
H    -0.793000000    -0.485000000     8.076000000
O    -2.986000000     4.529000000     2.316000000
H    -2.114000000     4.424000000     1.934000000
H    -3.563000000     4.036000000     1.732000000
O    -2.408000000     2.883000000    -4.372000000
H    -2.814000000     3.624000000    -3.922000000
H    -1.936000000     3.278000000    -5.105000000
O     3.493000000    -0.358000000    -5.645000000
H     2.865000000    -0.589000000    -6.329000000
H     3.688000000    -1.187000000    -5.209000000
