161
-3060.30821
C     1.273000000     0.343000000     0.664000000
H     2.185000000     0.758000000     1.086000000
C     0.904000000     0.787000000    -0.557000000
H     1.539000000     1.350000000    -1.236000000
C    -0.350000000     0.409000000    -1.061000000
C    -0.740000000     0.870000000    -2.487000000
H    -1.808000000     0.695000000    -2.634000000
H    -0.541000000     1.941000000    -2.554000000
H    -0.148000000     0.321000000    -3.222000000
C    -1.257000000    -0.350000000    -0.313000000
H    -2.239000000    -0.607000000    -0.701000000
C    -0.814000000    -0.897000000     0.854000000
H    -1.379000000    -1.599000000     1.462000000
C     0.478000000    -0.540000000     1.349000000
C     0.842000000    -1.011000000     2.751000000
O     0.137000000    -1.802000000     3.380000000
O     1.911000000    -0.666000000     3.217000000
O     0.663000000     0.944000000     7.651000000
H     1.038000000     1.022000000     6.773000000
H     0.319000000     1.816000000     7.843000000
O    -3.350000000     3.456000000     0.059000000
H    -3.076000000     3.604000000    -0.846000000
H    -3.967000000     4.165000000     0.241000000
O    -2.076000000    -1.764000000     4.544000000
H    -1.267000000    -1.649000000     4.046000000
H    -2.019000000    -1.117000000     5.246000000
O     1.125000000     4.348000000    -1.547000000
H     1.352000000     3.834000000    -2.322000000
H     0.183000000     4.497000000    -1.626000000
O     1.518000000     2.779000000    -3.986000000
H     1.177000000     3.593000000    -4.356000000
H     1.155000000     2.092000000    -4.543000000
O    -3.328000000    -0.077000000    -5.414000000
H    -4.021000000    -0.241000000    -6.053000000
H    -3.583000000    -0.590000000    -4.647000000
O     3.952000000     2.962000000    -5.475000000
H     3.446000000     2.849000000    -4.670000000
H     3.904000000     2.111000000    -5.910000000
O    -2.259000000    -3.698000000     2.460000000
H    -2.012000000    -2.797000000     2.670000000
H    -1.671000000    -4.237000000     2.989000000
O     3.592000000    -4.579000000     1.844000000
H     3.659000000    -3.626000000     1.910000000
H     4.379000000    -4.842000000     1.367000000
O     2.335000000    -3.993000000    -3.346000000
H     2.769000000    -4.338000000    -4.126000000
H     1.991000000    -3.142000000    -3.619000000
O     1.175000000    -1.880000000    -4.601000000
H     1.680000000    -1.142000000    -4.259000000
H     0.517000000    -1.477000000    -5.169000000
O    -2.387000000     2.760000000     5.167000000
H    -1.866000000     2.981000000     5.939000000
H    -1.787000000     2.272000000     4.604000000
O     1.455000000    -6.987000000     3.965000000
H     1.901000000    -6.939000000     4.810000000
H     1.028000000    -6.135000000     3.870000000
O    -0.848000000    -1.174000000    -6.056000000
H    -0.886000000    -2.045000000    -6.452000000
H    -1.734000000    -1.022000000    -5.726000000
O    -1.183000000    -2.714000000    -2.265000000
H    -1.504000000    -3.127000000    -1.463000000
H    -0.231000000    -2.718000000    -2.172000000
O    -5.966000000     2.088000000    -5.040000000
H    -5.254000000     2.471000000    -4.527000000
H    -5.960000000     1.161000000    -4.804000000
O    -3.732000000    -1.287000000    -2.994000000
H    -2.935000000    -1.315000000    -2.465000000
H    -3.964000000    -2.207000000    -3.126000000
O    -4.776000000     1.735000000    -1.974000000
H    -4.609000000     0.830000000    -2.235000000
H    -3.928000000     2.057000000    -1.668000000
O     6.543000000    -0.028000000     4.744000000
H     5.664000000     0.097000000     4.385000000
H     6.979000000    -0.602000000     4.115000000
O     1.515000000     1.063000000     5.112000000
H     1.655000000     1.892000000     4.654000000
H     1.702000000     0.392000000     4.456000000
O     0.028000000    -4.388000000     0.033000000
H     0.169000000    -4.197000000     0.960000000
H     0.805000000    -4.880000000    -0.231000000
O    -0.873000000     6.448000000    -3.610000000
H    -1.809000000     6.264000000    -3.531000000
H    -0.630000000     6.822000000    -2.764000000
O     4.345000000    -0.821000000    -0.720000000
H     3.877000000    -1.411000000    -0.129000000
H     5.267000000    -1.058000000    -0.615000000
O    -4.666000000    -2.673000000     3.673000000
H    -4.385000000    -3.327000000     3.034000000
H    -3.851000000    -2.347000000     4.056000000
O     2.305000000     3.229000000     3.781000000
H     1.980000000     3.437000000     2.906000000
H     3.134000000     3.703000000     3.848000000
O     4.283000000     0.808000000     3.742000000
H     4.256000000     1.200000000     2.869000000
H     3.421000000     0.407000000     3.852000000
O    -2.642000000    -4.183000000    -0.359000000
H    -3.162000000    -3.973000000     0.416000000
H    -1.798000000    -4.472000000    -0.011000000
O     4.555000000     1.746000000     1.068000000
H     4.883000000     1.323000000     0.274000000
H     4.910000000     2.634000000     1.031000000
O     4.045000000    -1.788000000     2.076000000
H     4.749000000    -1.271000000     2.469000000
H     3.243000000    -1.422000000     2.449000000
O     1.007000000    -4.280000000     2.659000000
H     0.932000000    -3.393000000     3.009000000
H     1.897000000    -4.324000000     2.307000000
O     2.860000000     6.320000000    -1.634000000
H     2.523000000     7.079000000    -1.158000000
H     2.107000000     5.735000000    -1.717000000
O     2.354000000    -3.937000000     7.108000000
H     1.753000000    -3.366000000     6.630000000
H     3.208000000    -3.514000000     7.020000000
O     4.027000000     2.191000000    -2.256000000
H     4.629000000     1.510000000    -2.558000000
H     3.280000000     2.132000000    -2.852000000
O     0.392000000     1.473000000    -6.077000000
H     0.646000000     1.380000000    -6.995000000
H    -0.107000000     0.679000000    -5.884000000
O    -1.164000000    -4.519000000     4.949000000
H    -1.226000000    -3.564000000     4.921000000
H    -1.175000000    -4.732000000     5.882000000
O     4.823000000     4.241000000    -0.900000000
H     4.717000000     3.396000000    -1.336000000
H     4.162000000     4.804000000    -1.303000000
O     0.538000000     4.775000000    -5.454000000
H     0.148000000     4.017000000    -5.888000000
H    -0.210000000     5.283000000    -5.140000000
O     1.143000000     4.023000000     1.375000000
H     1.424000000     3.736000000     0.506000000
H     0.312000000     3.570000000     1.520000000
O    -6.100000000     1.652000000     0.952000000
H    -5.229000000     2.035000000     0.843000000
H    -6.507000000     1.735000000     0.090000000
O    -1.531000000    -4.259000000    -4.361000000
H    -0.811000000    -4.850000000    -4.142000000
H    -1.509000000    -3.590000000    -3.677000000
O     0.403000000    -2.471000000     6.097000000
H    -0.195000000    -1.877000000     6.550000000
H     0.394000000    -2.172000000     5.188000000
O    -3.031000000     2.717000000    -5.137000000
H    -3.018000000     3.390000000    -5.818000000
H    -3.296000000     1.919000000    -5.594000000
O     4.525000000     3.005000000     5.938000000
H     3.981000000     3.033000000     6.725000000
H     3.997000000     2.528000000     5.298000000
O    -1.557000000    -0.607000000     6.917000000
H    -2.217000000    -0.229000000     7.499000000
H    -0.818000000    -0.001000000     6.968000000
O     3.624000000    -0.990000000     6.632000000
H     2.979000000    -0.500000000     6.122000000
H     3.933000000    -1.672000000     6.034000000
O    -0.987000000     2.181000000     1.813000000
H    -0.655000000     1.421000000     1.334000000
H    -1.846000000     2.350000000     1.426000000
O    -2.691000000     3.582000000    -2.562000000
H    -3.096000000     4.434000000    -2.727000000
H    -2.684000000     3.151000000    -3.417000000
O     3.228000000    -0.146000000    -3.639000000
H     2.992000000    -0.188000000    -2.712000000
H     4.182000000    -0.076000000    -3.640000000
