161
-3068.73507
C     1.200000000    -0.148000000    -0.778000000
H     2.012000000    -0.347000000    -1.473000000
C    -0.088000000    -0.464000000    -1.246000000
H    -0.325000000    -0.881000000    -2.221000000
C    -1.080000000    -0.287000000    -0.369000000
C    -2.528000000    -0.628000000    -0.776000000
H    -3.328000000    -0.172000000    -0.190000000
H    -2.618000000    -0.249000000    -1.797000000
H    -2.716000000    -1.703000000    -0.797000000
C    -0.908000000     0.248000000     0.912000000
H    -1.712000000     0.257000000     1.643000000
C     0.388000000     0.482000000     1.352000000
H     0.628000000     0.912000000     2.322000000
C     1.462000000     0.334000000     0.489000000
C     2.827000000     0.785000000     0.845000000
O     2.962000000     1.558000000     1.728000000
O     3.817000000     0.309000000     0.360000000
O    -0.751000000     1.065000000     5.958000000
H     0.019000000     0.593000000     5.639000000
H    -1.246000000     0.411000000     6.451000000
O    -3.097000000    -0.385000000     3.807000000
H    -2.333000000    -0.791000000     3.397000000
H    -2.824000000    -0.215000000     4.708000000
O    -7.675000000    -1.637000000    -0.623000000
H    -8.298000000    -1.859000000     0.070000000
H    -7.128000000    -0.950000000    -0.242000000
O    -4.710000000    -2.025000000     1.794000000
H    -4.596000000    -1.461000000     2.559000000
H    -4.221000000    -1.584000000     1.098000000
O    -7.657000000    -1.678000000     2.483000000
H    -7.193000000    -1.696000000     1.646000000
H    -6.968000000    -1.563000000     3.137000000
O     0.921000000    -0.626000000     5.087000000
H     1.751000000    -0.150000000     5.060000000
H     1.169000000    -1.529000000     5.284000000
O    -1.469000000    -2.411000000    -3.997000000
H    -0.691000000    -1.960000000    -4.324000000
H    -2.199000000    -1.994000000    -4.455000000
O     0.585000000     1.122000000    -6.330000000
H    -0.115000000     1.727000000    -6.086000000
H     1.281000000     1.686000000    -6.669000000
O    -0.295000000     5.581000000     2.921000000
H     0.596000000     5.231000000     2.928000000
H    -0.835000000     4.856000000     2.608000000
O    -3.155000000     0.830000000    -6.971000000
H    -2.483000000     0.686000000    -7.637000000
H    -3.150000000     0.028000000    -6.448000000
O    -2.565000000     3.147000000    -1.119000000
H    -2.206000000     3.326000000    -1.988000000
H    -1.820000000     3.243000000    -0.526000000
O     6.653000000    -0.487000000     4.601000000
H     6.319000000     0.025000000     3.864000000
H     6.416000000    -1.391000000     4.391000000
O     5.367000000    -2.863000000    -1.458000000
H     6.029000000    -3.248000000    -0.885000000
H     4.595000000    -2.765000000    -0.901000000
O     2.790000000    -3.287000000     0.044000000
H     1.911000000    -3.223000000     0.417000000
H     2.658000000    -3.700000000    -0.809000000
O     3.210000000     0.638000000     4.124000000
H     3.552000000     1.395000000     4.601000000
H     3.072000000     0.960000000     3.233000000
O     3.085000000    -1.484000000    -3.587000000
H     4.014000000    -1.627000000    -3.404000000
H     2.766000000    -0.992000000    -2.830000000
O     0.549000000    -2.421000000    -7.544000000
H     0.540000000    -2.287000000    -6.596000000
H     1.044000000    -1.677000000    -7.886000000
O     0.518000000    -1.188000000    -4.981000000
H     0.490000000    -0.440000000    -5.577000000
H     1.345000000    -1.088000000    -4.509000000
O     5.156000000     1.776000000    -3.844000000
H     5.289000000     1.254000000    -3.053000000
H     5.675000000     1.331000000    -4.514000000
O     1.140000000    -5.203000000    -1.623000000
H     0.420000000    -4.573000000    -1.665000000
H     0.734000000    -6.010000000    -1.308000000
O    -3.959000000    -4.634000000    -1.800000000
H    -4.762000000    -4.611000000    -1.280000000
H    -4.225000000    -4.329000000    -2.667000000
O     4.608000000     4.039000000    -0.464000000
H     4.059000000     3.563000000    -1.088000000
H     4.552000000     3.528000000     0.343000000
O    -3.511000000    -1.269000000    -5.332000000
H    -4.263000000    -0.810000000    -4.958000000
H    -3.814000000    -2.170000000    -5.449000000
O     0.293000000    -2.885000000     0.633000000
H     0.228000000    -2.077000000     0.123000000
H    -0.298000000    -3.495000000     0.190000000
O    -6.059000000     1.107000000     0.539000000
H    -5.414000000     1.151000000     1.245000000
H    -5.570000000     1.346000000    -0.248000000
O     7.753000000     1.206000000    -0.989000000
H     7.918000000     0.539000000    -0.323000000
H     6.813000000     1.150000000    -1.157000000
O     5.164000000    -0.019000000    -1.880000000
H     5.498000000    -0.903000000    -1.727000000
H     4.729000000     0.218000000    -1.061000000
O     3.424000000    -2.646000000     2.672000000
H     4.060000000    -1.931000000     2.681000000
H     3.409000000    -2.942000000     1.762000000
O    -6.214000000    -2.761000000    -2.851000000
H    -6.060000000    -1.948000000    -3.332000000
H    -6.690000000    -2.489000000    -2.067000000
O    -6.690000000    -4.733000000    -0.402000000
H    -6.783000000    -4.994000000     0.514000000
H    -6.570000000    -3.783000000    -0.369000000
O     1.920000000    -3.533000000     4.541000000
H     2.398000000    -3.188000000     3.787000000
H     2.600000000    -3.878000000     5.119000000
O    -1.304000000     3.014000000    -5.311000000
H    -1.850000000     2.240000000    -5.177000000
H    -1.252000000     3.424000000    -4.447000000
O     3.917000000     3.350000000     5.071000000
H     3.161000000     3.833000000     4.738000000
H     4.248000000     3.889000000     5.789000000
O     5.412000000    -0.831000000     2.053000000
H     6.295000000    -0.639000000     1.736000000
H     4.835000000    -0.337000000     1.470000000
O     1.468000000     5.363000000     0.752000000
H     0.828000000     6.073000000     0.708000000
H     2.317000000     5.802000000     0.698000000
O    -4.894000000     2.004000000    -1.934000000
H    -4.019000000     2.309000000    -1.698000000
H    -5.380000000     2.803000000    -2.137000000
O     8.210000000    -0.981000000     0.815000000
H     8.578000000    -1.288000000    -0.014000000
H     8.442000000    -1.662000000     1.447000000
O    -0.999000000    -2.222000000     3.155000000
H    -0.207000000    -2.269000000     3.691000000
H    -0.678000000    -2.225000000     2.253000000
O    -1.393000000    -3.910000000    -1.586000000
H    -1.278000000    -3.284000000    -2.301000000
H    -2.342000000    -4.009000000    -1.504000000
O     2.257000000     3.823000000     2.923000000
H     2.199000000     4.332000000     2.114000000
H     2.329000000     2.915000000     2.629000000
O    -0.090000000     2.485000000    -2.607000000
H     0.800000000     2.392000000    -2.946000000
H    -0.172000000     1.789000000    -1.956000000
O     5.318000000     2.265000000     2.733000000
H     4.544000000     1.921000000     2.287000000
H     4.970000000     2.725000000     3.497000000
O    -4.462000000     1.760000000     2.655000000
H    -4.604000000     2.530000000     3.204000000
H    -3.949000000     1.166000000     3.203000000
O    -5.658000000     0.022000000    -4.082000000
H    -5.341000000     0.338000000    -3.236000000
H    -6.608000000    -0.027000000    -3.979000000
O     3.866000000    -1.394000000     6.122000000
H     3.745000000    -0.519000000     5.752000000
H     4.598000000    -1.764000000     5.628000000
O    -1.777000000     3.638000000     5.989000000
H    -1.107000000     3.810000000     6.651000000
H    -1.543000000     2.782000000     5.629000000
O    -0.361000000     3.443000000     0.238000000
H    -0.117000000     2.767000000     0.870000000
H     0.203000000     4.186000000     0.454000000
O     2.547000000     2.467000000    -3.571000000
H     2.318000000     2.688000000    -4.474000000
H     3.433000000     2.109000000    -3.630000000
