161
-3035.11345
C     0.404000000    -1.411000000    -0.203000000
H     0.661000000    -2.454000000    -0.373000000
C    -0.891000000    -0.980000000     0.094000000
H    -1.633000000    -1.765000000     0.212000000
C    -1.118000000     0.369000000     0.326000000
C    -2.459000000     0.841000000     0.804000000
H    -3.289000000     0.236000000     0.435000000
H    -2.522000000     0.787000000     1.893000000
H    -2.574000000     1.875000000     0.471000000
C    -0.109000000     1.276000000     0.068000000
H    -0.297000000     2.320000000     0.306000000
C     1.196000000     0.856000000    -0.208000000
H     1.929000000     1.631000000    -0.419000000
C     1.434000000    -0.478000000    -0.421000000
C     2.736000000    -0.936000000    -0.880000000
O     3.561000000    -0.057000000    -1.129000000
O     2.964000000    -2.109000000    -0.982000000
O    -3.281000000    -0.492000000     4.796000000
H    -2.585000000     0.009000000     4.371000000
H    -2.839000000    -1.265000000     5.148000000
O     0.564000000    -5.254000000    -0.367000000
H     0.946000000    -5.661000000    -1.145000000
H     1.269000000    -4.718000000    -0.005000000
O    -7.901000000    -0.211000000     0.846000000
H    -8.360000000     0.410000000     1.412000000
H    -7.490000000     0.335000000     0.176000000
O    -4.133000000    -4.264000000     0.008000000
H    -3.811000000    -4.673000000    -0.795000000
H    -4.446000000    -3.403000000    -0.271000000
O     1.872000000     0.295000000     2.824000000
H     1.902000000    -0.653000000     2.701000000
H     1.062000000     0.567000000     2.392000000
O    -3.623000000     4.005000000     2.497000000
H    -3.056000000     4.113000000     1.733000000
H    -4.348000000     3.464000000     2.183000000
O     4.072000000     1.125000000    -6.469000000
H     3.600000000     0.732000000    -5.735000000
H     3.392000000     1.550000000    -6.992000000
O    -5.831000000     2.439000000     2.499000000
H    -5.695000000     1.575000000     2.887000000
H    -6.348000000     2.915000000     3.149000000
O    -2.523000000     4.512000000    -0.118000000
H    -2.155000000     5.296000000    -0.525000000
H    -2.978000000     4.063000000    -0.830000000
O    -1.295000000    -1.573000000    -3.270000000
H    -1.224000000    -0.858000000    -2.637000000
H    -0.400000000    -1.900000000    -3.363000000
O    -5.716000000    -0.004000000     3.889000000
H    -4.854000000    -0.147000000     4.281000000
H    -5.944000000    -0.847000000     3.497000000
O     2.760000000    -4.069000000     1.699000000
H     2.106000000    -3.573000000     2.191000000
H     3.048000000    -3.469000000     1.011000000
O    -1.099000000    -6.534000000     1.219000000
H    -0.512000000    -6.237000000     0.523000000
H    -1.872000000    -6.859000000     0.757000000
O     4.299000000     4.596000000    -1.885000000
H     4.416000000     3.914000000    -1.224000000
H     4.879000000     4.339000000    -2.601000000
O     0.480000000     3.327000000     3.713000000
H     0.028000000     2.561000000     4.070000000
H     1.240000000     2.965000000     3.258000000
O    -3.205000000     3.314000000     5.233000000
H    -3.307000000     3.800000000     4.415000000
H    -2.727000000     3.912000000     5.809000000
O    -6.671000000     1.847000000    -0.465000000
H    -7.034000000     2.628000000    -0.883000000
H    -6.331000000     2.160000000     0.374000000
O    -6.300000000    -2.442000000     3.185000000
H    -6.429000000    -3.251000000     3.680000000
H    -6.080000000    -2.735000000     2.301000000
O    -2.627000000     3.185000000    -2.492000000
H    -1.703000000     2.970000000    -2.365000000
H    -2.738000000     3.212000000    -3.443000000
O     4.512000000    -3.903000000    -2.617000000
H     5.075000000    -3.288000000    -3.087000000
H     4.144000000    -3.389000000    -1.898000000
O     1.286000000     5.294000000     0.184000000
H     1.166000000     4.637000000    -0.501000000
H     1.941000000     4.914000000     0.769000000
O     1.308000000    -2.477000000    -3.062000000
H     2.000000000    -2.295000000    -2.426000000
H     1.656000000    -2.154000000    -3.893000000
O     2.754000000    -1.969000000    -5.546000000
H     3.137000000    -1.851000000    -6.416000000
H     3.457000000    -1.735000000    -4.941000000
O     2.763000000     1.385000000    -3.259000000
H     2.193000000     1.876000000    -2.667000000
H     3.172000000     0.722000000    -2.702000000
O    -5.606000000     4.887000000     0.373000000
H    -5.457000000     5.277000000    -0.489000000
H    -4.775000000     5.002000000     0.834000000
O    -3.999000000    -2.054000000    -4.360000000
H    -4.623000000    -1.566000000    -3.823000000
H    -3.155000000    -1.916000000    -3.931000000
O     4.408000000     2.508000000    -0.250000000
H     4.561000000     2.303000000     0.672000000
H     4.045000000     1.702000000    -0.618000000
O     4.308000000    -5.477000000    -4.643000000
H     5.109000000    -5.056000000    -4.958000000
H     4.140000000    -5.067000000    -3.795000000
O    -0.161000000    -4.960000000    -3.630000000
H     0.063000000    -4.158000000    -3.159000000
H     0.396000000    -5.632000000    -3.237000000
O    -3.401000000    -4.395000000     3.311000000
H    -3.705000000    -5.171000000     2.841000000
H    -3.517000000    -3.677000000     2.689000000
O     6.920000000    -0.732000000    -2.124000000
H     6.862000000    -0.998000000    -1.207000000
H     6.598000000     0.170000000    -2.133000000
O     4.992000000    -1.171000000    -4.371000000
H     5.367000000    -1.068000000    -3.496000000
H     5.466000000    -0.539000000    -4.911000000
O    -1.140000000     1.229000000     4.543000000
H    -1.797000000     1.819000000     4.912000000
H    -0.755000000     0.794000000     5.304000000
O     1.367000000    -2.614000000     3.536000000
H     0.610000000    -3.191000000     3.643000000
H     1.787000000    -2.609000000     4.396000000
O     5.830000000     1.675000000    -2.401000000
H     5.296000000     1.484000000    -3.172000000
H     5.274000000     2.233000000    -1.857000000
O     1.519000000     3.920000000    -2.212000000
H     1.657000000     4.070000000    -3.147000000
H     2.359000000     4.137000000    -1.807000000
O     3.652000000     3.343000000     2.718000000
H     4.163000000     2.558000000     2.911000000
H     4.286000000     4.059000000     2.761000000
O     5.411000000    -6.443000000    -0.811000000
H     5.256000000    -7.042000000    -1.541000000
H     4.930000000    -5.649000000    -1.046000000
O    -4.389000000     1.307000000     6.427000000
H    -4.068000000     0.488000000     6.048000000
H    -4.030000000     1.990000000     5.861000000
O    -4.335000000     0.685000000    -1.685000000
H    -3.389000000     0.820000000    -1.643000000
H    -4.709000000     1.520000000    -1.403000000
O    -6.848000000     0.550000000    -3.274000000
H    -5.899000000     0.590000000    -3.397000000
H    -7.005000000     1.036000000    -2.464000000
O     8.015000000    -3.015000000     0.540000000
H     8.566000000    -2.686000000     1.249000000
H     7.222000000    -2.481000000     0.585000000
O    -5.169000000    -2.212000000    -1.208000000
H    -4.936000000    -1.285000000    -1.240000000
H    -5.466000000    -2.415000000    -2.095000000
O     0.628000000     2.384000000    -4.922000000
H     1.231000000     1.866000000    -4.390000000
H     0.936000000     3.285000000    -4.826000000
O     6.086000000    -1.164000000     0.877000000
H     5.348000000    -1.045000000     0.279000000
H     6.103000000    -0.362000000     1.400000000
O     6.242000000     1.528000000     2.191000000
H     6.723000000     2.319000000     1.947000000
H     6.352000000     1.464000000     3.139000000
O    -3.222000000    -5.208000000    -2.418000000
H    -2.303000000    -5.194000000    -2.685000000
H    -3.709000000    -5.033000000    -3.223000000
O    -0.029000000     5.549000000     2.598000000
H     0.008000000     4.674000000     2.985000000
H     0.164000000     5.409000000     1.671000000
