161
-3008.98715
C     0.926000000    -1.188000000     0.252000000
H     1.500000000    -2.060000000     0.556000000
C    -0.490000000    -1.172000000     0.391000000
H    -1.009000000    -2.064000000     0.733000000
C    -1.194000000     0.012000000     0.170000000
C    -2.723000000     0.030000000     0.415000000
H    -3.088000000    -0.999000000     0.441000000
H    -2.959000000     0.416000000     1.408000000
H    -3.120000000     0.505000000    -0.485000000
C    -0.570000000     1.138000000    -0.288000000
H    -1.111000000     2.064000000    -0.466000000
C     0.804000000     1.148000000    -0.418000000
H     1.246000000     2.087000000    -0.743000000
C     1.540000000    -0.017000000    -0.225000000
C     3.049000000     0.023000000    -0.445000000
O     3.595000000     1.081000000    -0.817000000
O     3.598000000    -1.000000000    -0.471000000
O    -3.817000000     0.816000000     4.064000000
H    -3.435000000     1.691000000     4.003000000
H    -3.063000000     0.227000000     4.095000000
O     3.751000000    -6.755000000    -1.153000000
H     3.762000000    -6.585000000    -2.095000000
H     3.813000000    -5.888000000    -0.753000000
O    -7.500000000    -0.714000000    -2.785000000
H    -8.312000000    -0.219000000    -2.668000000
H    -6.909000000    -0.365000000    -2.117000000
O    -5.267000000    -3.913000000    -1.006000000
H    -5.804000000    -4.292000000    -1.701000000
H    -4.601000000    -3.405000000    -1.468000000
O     1.199000000     1.469000000     2.598000000
H     0.690000000     0.934000000     1.989000000
H     0.580000000     2.128000000     2.913000000
O     4.604000000    -6.063000000     1.914000000
H     4.026000000    -6.759000000     1.600000000
H     4.560000000    -5.390000000     1.235000000
O    -2.882000000     4.179000000     1.578000000
H    -1.962000000     4.382000000     1.409000000
H    -3.333000000     4.418000000     0.768000000
O    -6.374000000     1.114000000    -0.572000000
H    -6.295000000     0.659000000     0.266000000
H    -7.172000000     1.636000000    -0.487000000
O    -2.600000000     2.880000000    -2.713000000
H    -2.739000000     3.741000000    -2.319000000
H    -1.855000000     3.003000000    -3.302000000
O     0.253000000    -2.579000000    -2.234000000
H    -0.101000000    -2.026000000    -2.931000000
H     0.211000000    -2.031000000    -1.450000000
O    -6.658000000     0.321000000     2.082000000
H    -6.017000000     0.585000000     2.741000000
H    -6.790000000    -0.614000000     2.236000000
O     4.216000000    -1.837000000     2.072000000
H     3.384000000    -2.073000000     2.483000000
H     3.975000000    -1.219000000     1.382000000
O     2.902000000     5.979000000    -3.306000000
H     3.132000000     5.510000000    -2.504000000
H     3.721000000     6.023000000    -3.800000000
O    -1.791000000    -1.203000000     4.609000000
H    -1.676000000    -2.049000000     5.043000000
H    -0.993000000    -0.717000000     4.815000000
O     2.912000000     3.836000000     1.711000000
H     2.406000000     3.061000000     1.955000000
H     3.123000000     4.256000000     2.545000000
O    -4.358000000     0.709000000    -2.820000000
H    -5.059000000     1.108000000    -2.304000000
H    -3.642000000     1.342000000    -2.781000000
O    -6.510000000    -2.311000000     3.074000000
H    -5.981000000    -3.090000000     2.903000000
H    -7.331000000    -2.471000000     2.608000000
O    -0.374000000     2.807000000    -4.408000000
H     0.513000000     2.966000000    -4.086000000
H    -0.488000000     3.439000000    -5.118000000
O     6.802000000    -3.009000000     1.357000000
H     7.631000000    -2.862000000     0.902000000
H     6.770000000    -2.323000000     2.024000000
O     5.272000000    -3.908000000    -3.756000000
H     4.716000000    -3.556000000    -3.061000000
H     5.432000000    -3.164000000    -4.335000000
O    -3.389000000     5.224000000    -1.389000000
H    -3.803000000     5.609000000    -2.162000000
H    -3.069000000     5.975000000    -0.890000000
O     3.154000000    -2.954000000    -2.196000000
H     3.296000000    -2.211000000    -1.610000000
H     2.472000000    -2.656000000    -2.798000000
O     6.665000000     4.036000000    -0.963000000
H     6.844000000     4.414000000    -0.102000000
H     5.729000000     3.839000000    -0.948000000
O     2.110000000     1.722000000    -3.912000000
H     3.028000000     1.746000000    -3.641000000
H     1.721000000     1.027000000    -3.381000000
O     3.915000000     3.749000000    -1.231000000
H     3.459000000     4.162000000    -0.497000000
H     3.725000000     2.816000000    -1.136000000
O    -3.429000000    -4.645000000     0.935000000
H    -4.026000000    -4.465000000     0.209000000
H    -2.866000000    -5.349000000     0.613000000
O     4.757000000     1.280000000    -3.231000000
H     4.443000000     1.078000000    -2.350000000
H     5.703000000     1.392000000    -3.129000000
O    -1.432000000    -5.860000000     4.245000000
H    -0.747000000    -5.582000000     4.853000000
H    -2.048000000    -5.128000000     4.229000000
O    -0.910000000     2.708000000     3.719000000
H    -1.617000000     2.937000000     3.117000000
H    -1.338000000     2.628000000     4.572000000
O     8.390000000     1.586000000     0.806000000
H     8.006000000     0.916000000     0.240000000
H     8.040000000     2.412000000     0.473000000
O     1.947000000    -2.310000000     3.418000000
H     2.353000000    -3.048000000     3.873000000
H     1.832000000    -1.644000000     4.096000000
O     5.364000000     1.766000000    -6.002000000
H     5.144000000     1.501000000    -5.109000000
H     4.917000000     2.604000000    -6.120000000
O    -5.048000000    -0.160000000     6.489000000
H    -4.673000000     0.089000000     5.644000000
H    -5.160000000    -1.109000000     6.430000000
O    -1.390000000    -0.398000000    -3.187000000
H    -2.183000000     0.068000000    -2.923000000
H    -0.785000000     0.292000000    -3.458000000
O     7.733000000    -0.219000000    -2.717000000
H     8.240000000     0.592000000    -2.741000000
H     7.075000000    -0.070000000    -2.037000000
O    -6.264000000     1.595000000    -4.917000000
H    -5.767000000     1.388000000    -4.125000000
H    -6.400000000     2.542000000    -4.874000000
O    -4.072000000    -2.124000000    -3.197000000
H    -3.957000000    -1.193000000    -3.008000000
H    -4.928000000    -2.179000000    -3.622000000
O    -7.724000000    -3.143000000     0.418000000
H    -7.965000000    -4.055000000     0.253000000
H    -6.918000000    -3.014000000    -0.081000000
O     6.520000000    -0.224000000    -0.294000000
H     5.734000000    -0.708000000    -0.548000000
H     6.236000000     0.327000000     0.436000000
O     4.233000000    -4.161000000     0.141000000
H     3.829000000    -3.709000000    -0.600000000
H     4.817000000    -3.510000000     0.530000000
O    -5.839000000     4.327000000     0.473000000
H    -5.326000000     3.656000000     0.923000000
H    -5.587000000     5.147000000     0.898000000
O     5.070000000     1.152000000     1.796000000
H     4.663000000     1.796000000     1.216000000
H     4.428000000     1.017000000     2.492000000
O     3.033000000     6.103000000     0.316000000
H     2.494000000     6.699000000     0.837000000
H     3.157000000     5.338000000     0.878000000
O    -2.021000000    -6.607000000    -0.418000000
H    -1.249000000    -6.068000000    -0.587000000
H    -1.789000000    -7.122000000     0.354000000
O    -3.142000000    -3.552000000     3.393000000
H    -2.996000000    -4.022000000     2.572000000
H    -2.606000000    -2.763000000     3.315000000
O    -0.438000000     5.077000000     0.685000000
H     0.163000000     4.660000000     0.069000000
H    -0.546000000     5.967000000     0.349000000
O     6.890000000    -1.112000000     3.222000000
H     6.672000000    -0.348000000     2.689000000
H     7.497000000    -0.778000000     3.882000000
O     3.419000000     1.223000000     3.958000000
H     2.605000000     1.211000000     3.454000000
H     3.182000000     1.643000000     4.786000000
