161
-3056.73248
C     0.748000000    -1.184000000     0.484000000
H     1.256000000    -2.030000000     0.941000000
C    -0.271000000    -0.547000000     1.204000000
H    -0.537000000    -0.966000000     2.171000000
C    -0.956000000     0.517000000     0.641000000
C    -1.942000000     1.296000000     1.380000000
H    -2.595000000     1.844000000     0.697000000
H    -2.579000000     0.581000000     1.906000000
H    -1.527000000     2.092000000     2.001000000
C    -0.548000000     0.963000000    -0.617000000
H    -1.021000000     1.843000000    -1.045000000
C     0.542000000     0.418000000    -1.268000000
H     0.844000000     0.843000000    -2.221000000
C     1.191000000    -0.709000000    -0.755000000
C     2.197000000    -1.416000000    -1.607000000
O     2.248000000    -1.320000000    -2.814000000
O     2.955000000    -2.229000000    -1.094000000
O    -1.313000000    -0.398000000     5.172000000
H    -0.688000000     0.319000000     5.069000000
H    -1.341000000    -0.557000000     6.115000000
O    -7.433000000    -0.528000000     3.569000000
H    -6.517000000    -0.272000000     3.674000000
H    -7.416000000    -1.485000000     3.571000000
O    -5.941000000    -2.988000000     3.303000000
H    -6.030000000    -3.383000000     4.171000000
H    -4.997000000    -2.881000000     3.186000000
O    -5.172000000     6.145000000    -0.321000000
H    -5.131000000     7.022000000    -0.703000000
H    -4.513000000     5.644000000    -0.802000000
O    -5.135000000     2.041000000    -3.466000000
H    -4.877000000     2.860000000    -3.891000000
H    -5.650000000     2.316000000    -2.708000000
O    -0.653000000     4.302000000    -3.112000000
H    -0.522000000     3.657000000    -3.808000000
H    -0.903000000     5.103000000    -3.572000000
O    -2.129000000     5.120000000     0.755000000
H    -2.329000000     4.988000000    -0.171000000
H    -1.258000000     4.741000000     0.869000000
O    -2.724000000    -1.610000000    -0.399000000
H    -2.342000000    -0.803000000    -0.743000000
H    -3.487000000    -1.770000000    -0.955000000
O    -3.269000000    -2.516000000     2.639000000
H    -2.613000000    -3.213000000     2.660000000
H    -3.127000000    -2.079000000     1.799000000
O     1.337000000     2.061000000     2.153000000
H     0.958000000     1.401000000     1.572000000
H     1.972000000     2.524000000     1.607000000
O     5.295000000    -0.970000000    -0.991000000
H     5.649000000    -1.444000000    -0.239000000
H     4.405000000    -1.307000000    -1.090000000
O     0.584000000     4.714000000     0.305000000
H     1.139000000     3.982000000     0.036000000
H     1.089000000     5.162000000     0.983000000
O     2.375000000     5.586000000    -2.222000000
H     2.015000000     5.958000000    -3.027000000
H     1.609000000     5.407000000    -1.677000000
O     3.945000000     0.004000000    -4.147000000
H     4.606000000     0.428000000    -3.600000000
H     3.307000000    -0.345000000    -3.525000000
O     3.597000000    -6.150000000    -3.357000000
H     3.912000000    -6.501000000    -4.190000000
H     2.873000000    -5.572000000    -3.599000000
O     3.637000000    -4.217000000    -5.477000000
H     3.760000000    -3.508000000    -6.109000000
H     3.913000000    -3.842000000    -4.640000000
O     2.984000000     3.153000000    -3.856000000
H     2.839000000     4.013000000    -3.462000000
H     3.597000000     2.718000000    -3.263000000
O     1.123000000    -5.186000000    -5.009000000
H     2.009000000    -4.986000000    -5.309000000
H     0.555000000    -4.663000000    -5.575000000
O     2.152000000    -3.280000000     5.575000000
H     2.346000000    -2.822000000     4.757000000
H     1.198000000    -3.351000000     5.590000000
O    -5.156000000     2.251000000     3.880000000
H    -4.414000000     2.839000000     3.744000000
H    -4.758000000     1.418000000     4.134000000
O     2.155000000     1.502000000    -5.818000000
H     2.380000000     2.075000000    -5.084000000
H     2.320000000     0.618000000    -5.491000000
O     0.794000000    -6.118000000     3.119000000
H     1.006000000    -6.248000000     4.044000000
H     1.353000000    -6.742000000     2.655000000
O    -5.819000000     1.257000000    -0.794000000
H    -5.602000000     1.842000000    -0.068000000
H    -4.977000000     0.900000000    -1.074000000
O     4.071000000    -1.742000000    -6.511000000
H     5.026000000    -1.668000000    -6.505000000
H     3.794000000    -1.330000000    -5.693000000
O     2.074000000     5.562000000     2.547000000
H     1.605000000     4.975000000     3.140000000
H     2.947000000     5.179000000     2.471000000
O     4.399000000    -3.138000000    -3.153000000
H     3.470000000    -2.951000000    -3.012000000
H     4.747000000    -3.297000000    -2.276000000
O    -0.611000000    -3.999000000     1.974000000
H    -0.459000000    -4.923000000     2.173000000
H    -0.725000000    -3.974000000     1.024000000
O    -3.256000000     4.495000000     3.132000000
H    -2.735000000     4.781000000     3.882000000
H    -2.960000000     5.051000000     2.410000000
O     0.684000000     3.752000000     4.194000000
H     0.809000000     3.150000000     3.461000000
H     0.372000000     3.197000000     4.909000000
O     3.970000000    -4.858000000     1.929000000
H     3.751000000    -5.755000000     2.180000000
H     3.561000000    -4.743000000     1.071000000
O    -3.389000000     0.294000000    -2.419000000
H    -3.909000000     0.984000000    -2.831000000
H    -2.539000000     0.341000000    -2.856000000
O    -0.930000000    -3.254000000     4.665000000
H    -0.643000000    -3.502000000     3.786000000
H    -1.157000000    -2.327000000     4.591000000
O     6.717000000    -4.452000000     1.358000000
H     5.809000000    -4.688000000     1.544000000
H     6.846000000    -4.699000000     0.443000000
O    -1.464000000     0.244000000    -4.271000000
H    -1.130000000     1.133000000    -4.388000000
H    -0.691000000    -0.315000000    -4.354000000
O     6.990000000    -1.985000000    -3.332000000
H     6.046000000    -2.144000000    -3.324000000
H     7.078000000    -1.082000000    -3.637000000
O    -1.132000000    -3.921000000    -3.386000000
H    -0.866000000    -4.090000000    -2.482000000
H    -0.586000000    -3.185000000    -3.664000000
O     2.766000000    -2.393000000     3.092000000
H     3.029000000    -3.133000000     2.544000000
H     3.121000000    -1.625000000     2.645000000
O     0.880000000    -6.633000000    -1.273000000
H     0.458000000    -6.470000000    -0.429000000
H     1.609000000    -6.014000000    -1.300000000
O    -0.423000000     2.317000000    -5.437000000
H     0.495000000     2.399000000    -5.695000000
H    -0.906000000     2.333000000    -6.264000000
O     2.798000000     3.148000000     0.158000000
H     3.505000000     3.760000000     0.364000000
H     3.238000000     2.405000000    -0.256000000
O     0.732000000    -1.642000000    -4.872000000
H     1.240000000    -1.630000000    -4.061000000
H     1.256000000    -2.170000000    -5.475000000
O    -4.216000000    -0.420000000     4.352000000
H    -3.309000000    -0.136000000     4.466000000
H    -4.186000000    -1.022000000     3.608000000
O     3.924000000    -0.106000000     2.315000000
H     4.500000000    -0.018000000     1.555000000
H     3.701000000     0.794000000     2.552000000
O     3.135000000    -4.906000000    -0.802000000
H     3.620000000    -5.098000000    -1.605000000
H     2.979000000    -3.962000000    -0.837000000
O    -2.876000000     4.624000000    -1.764000000
H    -2.025000000     4.412000000    -2.149000000
H    -3.355000000     5.059000000    -2.469000000
O    -5.851000000     4.321000000     1.909000000
H    -5.593000000     4.784000000     1.113000000
H    -5.094000000     4.402000000     2.490000000
O    -1.107000000    -3.863000000    -0.629000000
H    -1.739000000    -4.580000000    -0.681000000
H    -1.640000000    -3.085000000    -0.464000000
O     5.040000000     1.458000000    -2.015000000
H     5.315000000     0.648000000    -1.587000000
H     5.721000000     2.092000000    -1.789000000
