161
-3052.85796
C    -0.184000000    -1.290000000     0.718000000
H    -0.400000000    -2.202000000     1.267000000
C    -1.013000000    -0.214000000     0.827000000
H    -1.854000000    -0.251000000     1.514000000
C    -0.781000000     0.977000000     0.153000000
C    -1.464000000     2.341000000     0.370000000
H    -1.356000000     2.649000000     1.412000000
H    -0.885000000     3.051000000    -0.224000000
H    -2.517000000     2.266000000     0.089000000
C     0.302000000     1.006000000    -0.743000000
H     0.533000000     1.921000000    -1.281000000
C     1.102000000    -0.122000000    -0.888000000
H     1.942000000    -0.070000000    -1.577000000
C     0.923000000    -1.265000000    -0.182000000
C     1.668000000    -2.564000000    -0.422000000
O     2.664000000    -2.600000000    -1.102000000
O     1.320000000    -3.634000000     0.076000000
O     1.428000000    -4.398000000     4.836000000
H     1.233000000    -5.238000000     4.419000000
H     1.801000000    -3.863000000     4.135000000
O    -2.976000000    -3.636000000     2.055000000
H    -2.618000000    -2.818000000     2.399000000
H    -2.792000000    -4.283000000     2.736000000
O    -7.418000000     2.154000000     0.693000000
H    -6.511000000     2.430000000     0.823000000
H    -7.842000000     2.323000000     1.535000000
O    -2.981000000    -3.012000000    -0.852000000
H    -3.928000000    -3.001000000    -0.989000000
H    -2.875000000    -3.205000000     0.079000000
O    -5.016000000     4.210000000     3.627000000
H    -4.928000000     4.428000000     2.699000000
H    -4.698000000     3.309000000     3.693000000
O    -5.102000000     0.835000000    -1.273000000
H    -5.685000000     1.336000000    -1.844000000
H    -4.351000000     0.620000000    -1.826000000
O    -1.726000000    -3.004000000    -3.227000000
H    -2.243000000    -3.143000000    -2.434000000
H    -2.311000000    -3.255000000    -3.942000000
O     2.212000000     1.905000000    -4.830000000
H     1.317000000     1.598000000    -4.977000000
H     2.281000000     2.701000000    -5.357000000
O     3.138000000     5.719000000    -3.581000000
H     2.925000000     4.844000000    -3.256000000
H     3.191000000     6.261000000    -2.794000000
O     0.018000000     3.686000000     3.622000000
H    -0.159000000     4.479000000     3.116000000
H     0.366000000     3.066000000     2.982000000
O    -3.908000000    -0.791000000     5.303000000
H    -3.327000000    -1.456000000     4.935000000
H    -3.346000000    -0.274000000     5.880000000
O     3.666000000    -3.270000000    -6.216000000
H     3.493000000    -4.206000000    -6.318000000
H     3.100000000    -2.999000000    -5.494000000
O    -0.233000000    -8.310000000     1.372000000
H     0.326000000    -7.552000000     1.206000000
H     0.028000000    -8.615000000     2.241000000
O    -1.651000000     2.671000000     5.532000000
H    -1.091000000     3.157000000     4.925000000
H    -2.064000000     3.347000000     6.069000000
O    -2.899000000     5.642000000    -1.299000000
H    -2.109000000     6.182000000    -1.312000000
H    -2.583000000     4.752000000    -1.453000000
O    -0.006000000     5.024000000    -2.084000000
H    -0.157000000     4.199000000    -2.544000000
H     0.793000000     4.874000000    -1.579000000
O     1.107000000     1.218000000     2.557000000
H     0.476000000     1.233000000     3.276000000
H     0.937000000     0.391000000     2.106000000
O     3.887000000     2.736000000    -3.137000000
H     4.697000000     2.746000000    -3.647000000
H     3.216000000     2.460000000    -3.760000000
O     4.657000000    -1.487000000    -3.512000000
H     3.708000000    -1.461000000    -3.636000000
H     4.844000000    -2.395000000    -3.276000000
O    -0.209000000    -4.753000000    -1.718000000
H    -0.706000000    -4.045000000    -2.128000000
H     0.260000000    -4.330000000    -0.998000000
O    -3.933000000     1.791000000     3.997000000
H    -4.208000000     0.962000000     4.389000000
H    -3.068000000     1.958000000     4.372000000
O    -4.398000000     4.925000000     0.787000000
H    -3.873000000     5.154000000     0.020000000
H    -4.598000000     3.996000000     0.671000000
O     5.295000000    -1.601000000    -0.207000000
H     4.825000000    -2.125000000    -0.856000000
H     4.715000000    -1.585000000     0.554000000
O     1.769000000    -6.522000000     0.782000000
H     2.378000000    -6.976000000     0.200000000
H     1.648000000    -5.662000000     0.378000000
O    -1.927000000    -2.979000000     4.820000000
H    -1.159000000    -2.442000000     5.017000000
H    -1.623000000    -3.880000000     4.928000000
O    -0.279000000     5.401000000     1.282000000
H    -0.668000000     6.210000000     0.949000000
H    -0.694000000     4.707000000     0.770000000
O     5.270000000    -3.964000000     3.495000000
H     5.164000000    -4.487000000     4.289000000
H     4.379000000    -3.718000000     3.248000000
O    -4.901000000     2.245000000     1.292000000
H    -4.702000000     1.509000000     0.713000000
H    -4.544000000     1.985000000     2.142000000
O     0.057000000    -1.454000000    -4.350000000
H    -0.567000000    -1.741000000    -3.685000000
H    -0.357000000    -1.684000000    -5.182000000
O     5.351000000    -4.286000000    -3.012000000
H     4.704000000    -4.664000000    -3.608000000
H     4.895000000    -4.221000000    -2.173000000
O    -2.699000000     0.303000000    -2.601000000
H    -2.418000000    -0.551000000    -2.271000000
H    -2.928000000     0.143000000    -3.517000000
O     0.789000000    -6.204000000    -3.916000000
H     0.019000000    -6.621000000    -4.304000000
H     0.465000000    -5.809000000    -3.107000000
O     4.157000000     2.435000000    -0.372000000
H     4.109000000     2.443000000    -1.328000000
H     3.610000000     3.172000000    -0.099000000
O     4.133000000    -1.499000000     2.258000000
H     4.033000000    -0.560000000     2.103000000
H     5.057000000    -1.608000000     2.481000000
O     2.288000000     4.998000000    -0.152000000
H     1.493000000     5.262000000     0.312000000
H     2.787000000     5.809000000    -0.250000000
O     3.873000000     1.224000000     1.854000000
H     4.063000000     1.594000000     0.992000000
H     2.941000000     1.394000000     1.987000000
O    -0.483000000     1.270000000    -5.181000000
H    -0.773000000     1.401000000    -6.084000000
H    -0.561000000     0.327000000    -5.039000000
O     0.824000000    -1.734000000     5.347000000
H     0.738000000    -2.681000000     5.232000000
H     1.754000000    -1.599000000     5.531000000
O     2.153000000    -2.866000000    -3.795000000
H     1.289000000    -2.519000000    -4.015000000
H     2.248000000    -2.698000000    -2.858000000
O     2.038000000    -3.212000000     2.597000000
H     1.736000000    -3.449000000     1.720000000
H     2.627000000    -2.472000000     2.455000000
O     4.205000000    -4.589000000    -0.784000000
H     3.706000000    -5.366000000    -0.532000000
H     3.551000000    -3.893000000    -0.846000000
O     6.505000000     0.750000000    -1.208000000
H     6.195000000    -0.089000000    -0.867000000
H     5.842000000     1.382000000    -0.929000000
O    -1.098000000     2.785000000    -3.091000000
H    -0.812000000     2.564000000    -3.978000000
H    -1.283000000     1.939000000    -2.682000000
O    -2.073000000     6.938000000     3.563000000
H    -1.833000000     6.145000000     3.083000000
H    -2.942000000     7.165000000     3.230000000
O    -0.837000000    -0.080000000     4.084000000
H    -1.027000000     0.073000000     5.010000000
H    -0.371000000    -0.916000000     4.071000000
O     0.985000000    -6.800000000     3.619000000
H     1.095000000    -6.523000000     2.709000000
H     1.831000000    -7.178000000     3.858000000
O    -2.292000000    -6.843000000    -1.834000000
H    -2.494000000    -7.328000000    -1.033000000
H    -1.518000000    -6.326000000    -1.611000000
O     7.309000000    -3.647000000     0.167000000
H     6.738000000    -4.414000000     0.214000000
H     6.710000000    -2.909000000     0.057000000
