161
-3035.70090
C    -0.121000000    -1.383000000    -0.493000000
H    -0.379000000    -2.367000000    -0.874000000
C    -1.168000000    -0.485000000    -0.410000000
H    -2.128000000    -0.812000000    -0.802000000
C    -0.940000000     0.792000000     0.079000000
C    -2.023000000     1.726000000     0.144000000
H    -2.254000000     1.740000000     1.212000000
H    -1.723000000     2.692000000    -0.267000000
H    -2.940000000     1.480000000    -0.396000000
C     0.329000000     1.138000000     0.387000000
H     0.480000000     2.172000000     0.689000000
C     1.473000000     0.343000000     0.308000000
H     2.408000000     0.751000000     0.682000000
C     1.192000000    -0.990000000    -0.110000000
C     2.331000000    -1.979000000    -0.115000000
O     3.471000000    -1.671000000     0.161000000
O     1.985000000    -3.147000000    -0.190000000
O    -3.243000000    -4.631000000    -3.092000000
H    -3.749000000    -4.071000000    -2.504000000
H    -3.224000000    -5.483000000    -2.654000000
O     8.821000000    -0.520000000     0.516000000
H     9.085000000    -0.622000000    -0.399000000
H     7.891000000    -0.747000000     0.522000000
O    -4.337000000    -0.656000000     3.389000000
H    -3.978000000    -1.345000000     2.829000000
H    -4.970000000    -1.107000000     3.947000000
O    -2.803000000     1.369000000     4.248000000
H    -3.314000000     0.636000000     3.904000000
H    -3.259000000     1.624000000     5.049000000
O    -4.910000000    -0.844000000     0.146000000
H    -4.542000000    -1.626000000     0.558000000
H    -4.591000000    -0.118000000     0.682000000
O    -4.905000000     4.082000000     1.403000000
H    -4.582000000     4.247000000     2.289000000
H    -5.405000000     3.269000000     1.478000000
O    -3.650000000    -2.934000000     1.398000000
H    -2.733000000    -3.210000000     1.386000000
H    -4.121000000    -3.682000000     1.764000000
O    -5.147000000    -2.417000000    -2.102000000
H    -5.850000000    -3.055000000    -1.984000000
H    -5.116000000    -1.939000000    -1.274000000
O    -0.391000000     7.137000000    -0.233000000
H    -0.632000000     6.661000000     0.561000000
H     0.118000000     6.509000000    -0.745000000
O    -3.250000000     4.534000000     4.137000000
H    -3.852000000     4.505000000     4.881000000
H    -2.708000000     3.752000000     4.237000000
O    -4.156000000     2.004000000    -3.113000000
H    -4.006000000     1.059000000    -3.134000000
H    -4.783000000     2.131000000    -2.401000000
O     5.259000000    -4.652000000     4.289000000
H     4.869000000    -5.514000000     4.144000000
H     4.896000000    -4.105000000     3.592000000
O    -2.691000000     2.604000000    -5.285000000
H    -3.435000000     2.475000000    -4.697000000
H    -1.941000000     2.714000000    -4.700000000
O     0.857000000     4.604000000    -1.828000000
H     0.037000000     4.677000000    -2.317000000
H     1.155000000     3.709000000    -1.993000000
O     1.654000000     1.105000000     4.215000000
H     2.547000000     0.760000000     4.202000000
H     1.400000000     1.078000000     5.137000000
O    -0.290000000    -0.009000000    -4.785000000
H    -0.798000000    -0.770000000    -4.507000000
H     0.200000000    -0.313000000    -5.549000000
O    -1.388000000    -3.879000000     2.485000000
H    -1.422000000    -4.772000000     2.829000000
H    -1.152000000    -3.341000000     3.240000000
O    -0.535000000     2.536000000     3.263000000
H    -1.258000000     1.965000000     3.521000000
H     0.241000000     1.980000000     3.318000000
O     1.506000000    -4.938000000     3.352000000
H     0.656000000    -5.375000000     3.288000000
H     2.141000000    -5.614000000     3.117000000
O     1.081000000     6.358000000     2.490000000
H     0.137000000     6.282000000     2.351000000
H     1.189000000     7.192000000     2.947000000
O    -5.812000000     1.280000000     2.371000000
H    -6.563000000     1.484000000     2.928000000
H    -5.426000000     0.498000000     2.766000000
O    -2.419000000     5.931000000    -3.189000000
H    -2.589000000     5.321000000    -2.471000000
H    -3.200000000     5.877000000    -3.740000000
O    -0.178000000    -4.727000000     0.158000000
H    -0.746000000    -4.373000000     0.842000000
H     0.596000000    -4.163000000     0.174000000
O    -0.819000000     2.753000000    -3.020000000
H    -1.361000000     2.254000000    -2.410000000
H    -0.441000000     2.092000000    -3.600000000
O    -1.423000000     5.504000000     1.893000000
H    -1.314000000     4.638000000     2.286000000
H    -2.232000000     5.841000000     2.278000000
O    -0.503000000     4.233000000     5.494000000
H     0.353000000     4.609000000     5.699000000
H    -0.356000000     3.722000000     4.698000000
O     2.739000000    -7.272000000    -0.156000000
H     3.315000000    -7.969000000     0.155000000
H     1.919000000    -7.716000000    -0.372000000
O     3.671000000    -3.130000000     2.499000000
H     3.900000000    -2.946000000     1.588000000
H     2.768000000    -3.444000000     2.460000000
O     3.775000000    -4.958000000     0.153000000
H     3.136000000    -4.249000000     0.215000000
H     3.247000000    -5.756000000     0.132000000
O    -3.801000000     4.372000000    -1.158000000
H    -4.058000000     3.470000000    -1.349000000
H    -3.879000000     4.448000000    -0.207000000
O     4.003000000    -6.367000000    -2.791000000
H     3.724000000    -6.373000000    -1.875000000
H     4.683000000    -5.694000000    -2.830000000
O     5.884000000     0.802000000    -2.039000000
H     6.424000000     1.353000000    -1.472000000
H     5.669000000     0.042000000    -1.498000000
O     4.414000000    -1.934000000    -2.604000000
H     3.713000000    -1.328000000    -2.844000000
H     4.437000000    -1.907000000    -1.648000000
O    -3.799000000    -0.747000000    -3.737000000
H    -2.992000000    -1.205000000    -3.500000000
H    -4.496000000    -1.278000000    -3.351000000
O     2.653000000     4.247000000     3.198000000
H     1.995000000     4.894000000     2.945000000
H     2.841000000     3.768000000     2.391000000
O     4.478000000     3.401000000     1.349000000
H     4.320000000     3.119000000     0.447000000
H     4.885000000     4.262000000     1.263000000
O     7.099000000    -1.957000000    -2.997000000
H     7.353000000    -1.521000000    -3.811000000
H     6.165000000    -1.769000000    -2.907000000
O    -1.226000000    -2.723000000    -3.668000000
H    -1.956000000    -3.341000000    -3.700000000
H    -0.487000000    -3.241000000    -3.348000000
O     0.810000000    -4.656000000    -2.400000000
H     0.526000000    -4.725000000    -1.489000000
H     1.665000000    -4.227000000    -2.353000000
O     4.045000000     2.848000000    -1.288000000
H     3.416000000     3.086000000    -1.969000000
H     4.522000000     2.103000000    -1.653000000
O     0.749000000    -1.339000000     3.095000000
H     0.665000000    -0.400000000     2.931000000
H     1.064000000    -1.700000000     2.266000000
O     6.036000000    -1.375000000    -0.069000000
H     6.158000000    -2.306000000     0.117000000
H     5.159000000    -1.178000000     0.259000000
O     6.466000000     1.206000000     2.138000000
H     6.058000000     2.069000000     2.059000000
H     6.652000000     0.946000000     1.235000000
O     2.427000000    -0.132000000    -3.258000000
H     2.705000000     0.592000000    -3.819000000
H     1.471000000    -0.124000000    -3.313000000
O    -0.578000000    -7.711000000    -0.497000000
H    -0.069000000    -8.245000000     0.112000000
H    -0.750000000    -6.900000000    -0.018000000
O     4.149000000    -0.641000000     3.486000000
H     4.486000000    -0.076000000     2.791000000
H     4.003000000    -1.485000000     3.058000000
O     6.491000000    -4.585000000     0.374000000
H     5.591000000    -4.788000000     0.118000000
H     6.579000000    -4.957000000     1.252000000
O    -5.819000000     1.420000000    -1.227000000
H    -5.729000000     0.515000000    -0.927000000
H    -6.727000000     1.649000000    -1.029000000
