161
-3016.96139
C    -0.219000000    -0.895000000    -1.063000000
H    -0.565000000    -1.544000000    -1.863000000
C    -1.175000000    -0.033000000    -0.658000000
H    -2.164000000    -0.161000000    -1.090000000
C    -0.859000000     0.765000000     0.431000000
C    -1.867000000     1.750000000     1.000000000
H    -2.588000000     2.103000000     0.259000000
H    -2.333000000     1.174000000     1.802000000
H    -1.383000000     2.632000000     1.424000000
C     0.415000000     0.812000000     0.897000000
H     0.673000000     1.499000000     1.699000000
C     1.409000000    -0.090000000     0.458000000
H     2.426000000    -0.071000000     0.842000000
C     1.079000000    -1.007000000    -0.549000000
C     2.061000000    -2.038000000    -1.038000000
O     3.168000000    -2.148000000    -0.507000000
O     1.925000000    -2.747000000    -2.046000000
O    -2.406000000    -3.612000000    -3.487000000
H    -2.744000000    -2.723000000    -3.592000000
H    -3.166000000    -4.126000000    -3.214000000
O    -3.298000000    -0.034000000     5.851000000
H    -2.968000000     0.311000000     6.681000000
H    -3.054000000    -0.960000000     5.863000000
O    -5.193000000     1.114000000     2.767000000
H    -5.137000000     1.285000000     1.827000000
H    -5.268000000     0.162000000     2.833000000
O    -3.297000000     2.449000000     4.182000000
H    -4.180000000     2.268000000     3.860000000
H    -2.959000000     1.595000000     4.449000000
O    -5.077000000     1.219000000     0.139000000
H    -4.706000000     0.398000000    -0.184000000
H    -5.837000000     1.375000000    -0.422000000
O    -3.416000000     5.271000000     0.576000000
H    -4.032000000     4.969000000     1.243000000
H    -2.906000000     4.493000000     0.351000000
O    -4.253000000    -1.408000000    -0.332000000
H    -3.573000000    -2.012000000    -0.032000000
H    -5.072000000    -1.800000000    -0.031000000
O    -3.773000000    -0.965000000    -3.197000000
H    -4.306000000    -0.308000000    -3.646000000
H    -4.277000000    -1.188000000    -2.414000000
O    -0.557000000     5.026000000    -1.230000000
H    -0.170000000     5.397000000    -0.437000000
H     0.016000000     4.293000000    -1.457000000
O    -4.556000000     4.821000000     3.330000000
H    -5.200000000     4.924000000     4.031000000
H    -4.004000000     4.093000000     3.616000000
O     5.028000000     1.564000000    -0.553000000
H     4.336000000     2.142000000    -0.232000000
H     5.424000000     2.047000000    -1.279000000
O     5.522000000    -3.458000000     2.721000000
H     4.642000000    -3.791000000     2.894000000
H     5.442000000    -2.993000000     1.887000000
O     0.780000000     2.676000000    -1.828000000
H     0.606000000     1.736000000    -1.793000000
H     0.783000000     2.885000000    -2.762000000
O     4.418000000     0.868000000     3.689000000
H     3.561000000     0.690000000     4.075000000
H     4.813000000     1.519000000     4.270000000
O    -1.251000000    -3.365000000    -6.130000000
H    -1.227000000    -4.199000000    -5.661000000
H    -1.627000000    -2.748000000    -5.503000000
O    -1.900000000    -3.016000000     1.617000000
H    -2.503000000    -3.720000000     1.853000000
H    -1.325000000    -3.404000000     0.957000000
O    -0.523000000     1.611000000     4.169000000
H    -1.136000000     2.335000000     4.038000000
H    -0.850000000     0.914000000     3.600000000
O     1.287000000    -5.641000000     2.613000000
H     0.531000000    -5.512000000     2.039000000
H     1.559000000    -4.755000000     2.852000000
O     0.018000000     5.743000000     1.430000000
H    -0.809000000     6.224000000     1.405000000
H     0.636000000     6.349000000     1.837000000
O     1.186000000    -2.026000000    -7.037000000
H     0.462000000    -2.598000000    -6.782000000
H     1.600000000    -1.780000000    -6.210000000
O    -3.317000000     5.479000000    -3.601000000
H    -4.148000000     5.428000000    -4.072000000
H    -3.512000000     5.130000000    -2.731000000
O    -2.445000000     7.166000000    -1.129000000
H    -2.695000000     6.485000000    -0.505000000
H    -1.582000000     6.897000000    -1.444000000
O    -0.122000000    -4.712000000    -2.304000000
H    -0.954000000    -4.339000000    -2.596000000
H     0.484000000    -3.971000000    -2.300000000
O    -1.734000000    -0.594000000    -4.720000000
H    -1.224000000    -0.007000000    -4.161000000
H    -2.416000000    -0.939000000    -4.145000000
O    -2.078000000     7.344000000     2.308000000
H    -2.173000000     7.003000000     3.197000000
H    -2.779000000     6.920000000     1.813000000
O     1.041000000     0.109000000    -3.975000000
H     1.483000000     0.275000000    -3.142000000
H     1.363000000     0.797000000    -4.558000000
O     0.073000000     4.431000000     4.781000000
H     0.354000000     4.198000000     5.666000000
H     0.778000000     4.116000000     4.215000000
O     2.306000000    -2.931000000     2.518000000
H     2.552000000    -2.783000000     1.605000000
H     1.750000000    -2.185000000     2.741000000
O     3.410000000    -5.208000000    -1.728000000
H     2.988000000    -4.455000000    -1.315000000
H     3.800000000    -5.693000000    -1.000000000
O    -0.632000000    -5.530000000     0.259000000
H    -0.286000000    -5.270000000    -0.595000000
H    -1.457000000    -5.973000000     0.059000000
O    -5.056000000     4.568000000    -1.462000000
H    -5.703000000     4.024000000    -1.912000000
H    -5.475000000     4.802000000    -0.634000000
O     1.753000000     1.714000000     5.944000000
H     2.402000000     2.364000000     5.675000000
H     1.081000000     1.751000000     5.263000000
O    -3.720000000     2.205000000    -3.712000000
H    -3.328000000     3.073000000    -3.615000000
H    -4.525000000     2.247000000    -3.195000000
O     6.116000000    -5.190000000    -3.155000000
H     5.193000000    -5.198000000    -2.903000000
H     6.211000000    -4.401000000    -3.689000000
O     6.970000000     0.629000000    -2.557000000
H     7.666000000     0.893000000    -1.955000000
H     6.478000000    -0.037000000    -2.077000000
O     5.066000000    -2.259000000    -2.827000000
H     4.430000000    -1.769000000    -3.349000000
H     4.605000000    -2.455000000    -2.011000000
O     1.737000000     3.759000000     2.728000000
H     0.904000000     4.182000000     2.518000000
H     2.207000000     3.729000000     1.894000000
O     2.849000000     3.653000000     0.078000000
H     2.235000000     3.107000000    -0.413000000
H     2.786000000     4.515000000    -0.335000000
O     3.326000000    -4.872000000    -4.289000000
H     2.904000000    -4.035000000    -4.484000000
H     3.233000000    -4.971000000    -3.341000000
O     3.411000000     3.484000000     4.919000000
H     4.266000000     3.874000000     4.738000000
H     2.916000000     3.605000000     4.108000000
O     3.524000000     1.903000000    -3.555000000
H     4.022000000     1.086000000    -3.540000000
H     4.092000000     2.539000000    -3.120000000
O    -0.075000000    -1.489000000     3.065000000
H    -0.224000000    -0.757000000     2.466000000
H    -0.865000000    -2.024000000     2.990000000
O     5.637000000    -2.396000000     0.253000000
H     5.724000000    -1.443000000     0.280000000
H     4.693000000    -2.548000000     0.203000000
O     6.028000000     0.367000000     1.459000000
H     5.289000000     0.524000000     2.046000000
H     5.908000000     0.999000000     0.749000000
O     2.288000000    -2.250000000    -4.387000000
H     1.595000000    -1.594000000    -4.310000000
H     2.257000000    -2.730000000    -3.560000000
O     0.187000000    -7.455000000    -2.193000000
H     1.086000000    -7.496000000    -1.868000000
H    -0.013000000    -6.520000000    -2.226000000
O     6.037000000    -1.239000000     4.289000000
H     5.532000000    -0.482000000     3.993000000
H     5.865000000    -1.914000000     3.632000000
O     6.903000000    -4.942000000    -0.178000000
H     6.558000000    -5.063000000    -1.063000000
H     6.532000000    -4.108000000     0.111000000
