161
-3030.61354
C    -0.170000000    -0.687000000    -1.327000000
H    -0.398000000    -1.248000000    -2.230000000
C    -1.185000000    -0.255000000    -0.436000000
H    -2.240000000    -0.450000000    -0.615000000
C    -0.908000000     0.458000000     0.716000000
C    -2.027000000     0.944000000     1.696000000
H    -2.971000000     0.495000000     1.380000000
H    -1.806000000     0.462000000     2.650000000
H    -2.027000000     2.031000000     1.799000000
C     0.413000000     0.645000000     0.991000000
H     0.703000000     1.014000000     1.971000000
C     1.434000000     0.324000000     0.110000000
H     2.467000000     0.573000000     0.340000000
C     1.158000000    -0.435000000    -0.961000000
C     2.218000000    -1.119000000    -1.854000000
O     3.318000000    -0.830000000    -1.528000000
O     2.018000000    -1.917000000    -2.697000000
O    -0.567000000    -3.010000000    -6.425000000
H    -1.391000000    -2.525000000    -6.376000000
H    -0.195000000    -2.765000000    -7.272000000
O     6.898000000    -1.708000000    -1.727000000
H     6.373000000    -1.755000000    -0.928000000
H     6.289000000    -1.390000000    -2.394000000
O    -5.035000000     1.072000000     4.763000000
H    -4.432000000     0.350000000     4.585000000
H    -5.563000000     0.766000000     5.500000000
O    -3.219000000     2.787000000     6.000000000
H    -4.048000000     2.513000000     5.609000000
H    -2.567000000     2.202000000     5.613000000
O    -3.829000000     1.804000000    -2.103000000
H    -2.939000000     1.970000000    -1.792000000
H    -4.114000000     1.032000000    -1.614000000
O    -2.210000000    -3.082000000    -0.238000000
H    -2.240000000    -3.484000000    -1.107000000
H    -2.004000000    -2.163000000    -0.406000000
O    -4.967000000    -0.232000000    -0.296000000
H    -5.161000000    -0.568000000     0.579000000
H    -5.670000000    -0.579000000    -0.847000000
O    -2.078000000    -1.458000000    -4.304000000
H    -1.138000000    -1.358000000    -4.455000000
H    -2.149000000    -2.224000000    -3.734000000
O    -5.847000000     3.248000000     3.383000000
H    -6.597000000     3.289000000     3.977000000
H    -5.359000000     2.475000000     3.666000000
O     2.398000000     3.903000000    -2.899000000
H     2.804000000     3.633000000    -3.722000000
H     1.478000000     3.654000000    -2.992000000
O    -2.315000000    -1.222000000     7.038000000
H    -3.083000000    -1.673000000     6.687000000
H    -2.051000000    -1.750000000     7.791000000
O    -2.415000000    -3.682000000     3.793000000
H    -2.376000000    -4.138000000     2.953000000
H    -1.567000000    -3.858000000     4.201000000
O    -4.049000000    -1.470000000     3.897000000
H    -3.452000000    -2.199000000     3.726000000
H    -4.538000000    -1.737000000     4.674000000
O     4.340000000     1.788000000     3.017000000
H     3.847000000     1.132000000     3.510000000
H     5.251000000     1.504000000     3.085000000
O     6.909000000    -3.708000000    -3.817000000
H     6.958000000    -2.992000000    -3.184000000
H     6.172000000    -3.479000000    -4.382000000
O    -4.034000000     0.160000000    -5.630000000
H    -4.901000000    -0.042000000    -5.280000000
H    -3.426000000    -0.157000000    -4.963000000
O    -2.125000000    -5.066000000     1.469000000
H    -2.761000000    -5.700000000     1.137000000
H    -2.070000000    -4.401000000     0.783000000
O    -1.432000000     0.809000000     5.435000000
H    -1.818000000     0.379000000     6.199000000
H    -1.013000000     0.100000000     4.948000000
O     7.366000000     2.168000000    -2.540000000
H     6.938000000     2.467000000    -3.343000000
H     6.651000000     1.837000000    -1.997000000
O     2.281000000     0.319000000     4.149000000
H     2.188000000     0.383000000     5.100000000
H     1.388000000     0.401000000     3.815000000
O    -2.091000000    -3.814000000    -2.908000000
H    -2.909000000    -4.222000000    -3.192000000
H    -1.503000000    -4.550000000    -2.737000000
O     1.365000000    -3.692000000    -4.587000000
H     0.792000000    -3.294000000    -5.243000000
H     1.410000000    -3.044000000    -3.884000000
O     0.624000000    -0.555000000    -4.723000000
H     0.849000000    -0.346000000    -5.630000000
H     1.419000000    -0.948000000    -4.364000000
O    -1.451000000     5.018000000     2.358000000
H    -1.048000000     4.233000000     2.730000000
H    -2.098000000     4.684000000     1.738000000
O    -6.297000000    -1.063000000     2.094000000
H    -6.916000000    -0.603000000     2.661000000
H    -5.526000000    -1.201000000     2.644000000
O     2.847000000    -6.072000000    -0.074000000
H     2.682000000    -6.866000000    -0.582000000
H     3.229000000    -5.460000000    -0.704000000
O     3.314000000    -4.143000000    -1.999000000
H     2.904000000    -3.280000000    -1.937000000
H     4.123000000    -3.989000000    -2.486000000
O     5.008000000    -1.555000000     0.281000000
H     4.578000000    -1.909000000     1.060000000
H     4.289000000    -1.312000000    -0.301000000
O    -6.273000000    -0.947000000    -2.795000000
H    -6.528000000    -0.033000000    -2.665000000
H    -6.442000000    -1.113000000    -3.722000000
O    -0.193000000     3.034000000     4.055000000
H     0.582000000     3.010000000     4.616000000
H    -0.818000000     2.452000000     4.487000000
O    -2.849000000     2.530000000    -4.633000000
H    -3.248000000     2.339000000    -3.784000000
H    -3.356000000     2.011000000    -5.257000000
O     0.355000000     2.157000000    -3.595000000
H     0.167000000     1.556000000    -4.317000000
H    -0.308000000     1.953000000    -2.935000000
O     4.814000000     1.544000000    -1.449000000
H     4.368000000     2.259000000    -0.995000000
H     4.195000000     0.815000000    -1.416000000
O    -6.402000000     2.927000000    -0.276000000
H    -5.718000000     2.427000000     0.169000000
H    -6.674000000     3.584000000     0.365000000
O    -3.142000000     4.524000000     0.258000000
H    -4.030000000     4.780000000     0.506000000
H    -2.907000000     5.124000000    -0.449000000
O     4.019000000    -3.521000000    -5.183000000
H     3.158000000    -3.597000000    -4.773000000
H     3.930000000    -2.792000000    -5.797000000
O    -1.366000000     2.801000000    -1.214000000
H    -1.899000000     3.490000000    -0.817000000
H    -0.961000000     2.353000000    -0.471000000
O    -5.531000000     4.975000000     1.512000000
H    -5.727000000     5.802000000     1.951000000
H    -5.589000000     4.316000000     2.204000000
O     0.128000000    -5.187000000    -1.581000000
H     0.771000000    -4.517000000    -1.816000000
H     0.176000000    -5.240000000    -0.626000000
O    -0.205000000    -1.427000000     4.317000000
H    -0.944000000    -2.010000000     4.142000000
H     0.490000000    -2.008000000     4.626000000
O     0.820000000    -3.132000000     0.522000000
H     1.446000000    -2.825000000     1.177000000
H     0.192000000    -2.415000000     0.436000000
O     2.011000000     4.939000000     1.416000000
H     1.136000000     4.858000000     1.795000000
H     2.601000000     4.926000000     2.170000000
O     5.115000000    -0.816000000    -3.513000000
H     4.459000000    -0.886000000    -2.820000000
H     4.688000000    -0.295000000    -4.194000000
O     1.151000000    -6.444000000    -5.238000000
H     1.159000000    -5.537000000    -4.932000000
H     2.065000000    -6.635000000    -5.446000000
O     3.046000000    -2.381000000     2.108000000
H     2.917000000    -1.470000000     2.370000000
H     3.573000000    -2.760000000     2.811000000
O     6.534000000     1.148000000     1.287000000
H     6.706000000     0.409000000     1.871000000
H     6.044000000     0.768000000     0.558000000
O     4.192000000     3.318000000     0.755000000
H     4.265000000     2.829000000     1.574000000
H     3.291000000     3.642000000     0.749000000
O     2.981000000     1.314000000    -4.157000000
H     3.497000000     1.390000000    -3.354000000
H     2.079000000     1.474000000    -3.878000000
