161
-3031.21834
C    -0.372000000    -1.061000000    -0.973000000
H    -0.696000000    -1.917000000    -1.559000000
C    -1.085000000    -0.746000000     0.148000000
H    -1.958000000    -1.377000000     0.296000000
C    -0.657000000     0.272000000     1.024000000
C    -1.583000000     0.828000000     2.146000000
H    -2.653000000     0.741000000     1.944000000
H    -1.213000000     0.566000000     3.140000000
H    -1.355000000     1.894000000     2.209000000
C     0.529000000     0.889000000     0.727000000
H     0.904000000     1.779000000     1.227000000
C     1.279000000     0.522000000    -0.363000000
H     2.133000000     1.150000000    -0.604000000
C     0.901000000    -0.523000000    -1.196000000
C     1.723000000    -0.922000000    -2.405000000
O     2.621000000    -0.178000000    -2.719000000
O     1.476000000    -1.918000000    -3.047000000
O     5.680000000    -0.741000000    -3.914000000
H     6.626000000    -0.600000000    -3.896000000
H     5.357000000    -0.296000000    -3.130000000
O    -3.381000000     1.977000000    -0.396000000
H    -3.037000000     1.180000000     0.007000000
H    -4.088000000     2.254000000     0.186000000
O    -2.944000000    -5.660000000    -1.247000000
H    -3.623000000    -5.940000000    -1.861000000
H    -2.334000000    -6.397000000    -1.212000000
O    -2.412000000    -5.793000000    -4.924000000
H    -1.984000000    -5.181000000    -4.325000000
H    -2.193000000    -6.658000000    -4.580000000
O    -3.485000000    -3.499000000     0.772000000
H    -3.440000000    -3.556000000    -0.182000000
H    -2.615000000    -3.765000000     1.070000000
O    -6.140000000     2.120000000     1.842000000
H    -6.890000000     1.678000000     1.442000000
H    -6.469000000     2.435000000     2.684000000
O    -2.979000000    -0.296000000     6.258000000
H    -2.047000000    -0.102000000     6.354000000
H    -3.353000000    -0.109000000     7.119000000
O    -0.930000000    -0.414000000    -4.052000000
H    -0.903000000    -0.042000000    -4.933000000
H    -0.010000000    -0.496000000    -3.798000000
O     2.627000000    -1.918000000    -5.708000000
H     2.510000000    -1.800000000    -4.766000000
H     3.299000000    -1.280000000    -5.948000000
O    -0.881000000    -4.379000000     1.561000000
H    -0.271000000    -3.670000000     1.763000000
H    -0.411000000    -4.928000000     0.934000000
O     1.505000000     4.111000000    -3.684000000
H     1.614000000     3.172000000    -3.833000000
H     1.518000000     4.206000000    -2.732000000
O    -6.292000000    -2.730000000     1.184000000
H    -5.417000000    -3.113000000     1.128000000
H    -6.203000000    -2.020000000     1.820000000
O    -5.226000000     1.066000000     5.353000000
H    -6.000000000     0.634000000     5.714000000
H    -4.515000000     0.441000000     5.495000000
O     0.087000000     2.206000000     4.844000000
H     0.953000000     1.974000000     4.509000000
H    -0.274000000     1.381000000     5.168000000
O    -3.512000000     0.076000000    -3.830000000
H    -3.876000000    -0.603000000    -4.399000000
H    -2.564000000    -0.033000000    -3.903000000
O     1.171000000     3.896000000     6.695000000
H     0.858000000     3.231000000     6.082000000
H     2.035000000     3.586000000     6.966000000
O     1.023000000    -4.325000000    -2.249000000
H     1.114000000    -3.408000000    -2.507000000
H     1.532000000    -4.808000000    -2.900000000
O    -4.368000000     3.845000000     5.898000000
H    -4.679000000     2.940000000     5.932000000
H    -3.430000000     3.769000000     5.725000000
O    -0.211000000    -0.116000000     6.330000000
H    -0.064000000    -0.492000000     7.198000000
H     0.327000000    -0.648000000     5.744000000
O     3.365000000    -3.220000000     0.738000000
H     2.985000000    -3.505000000    -0.093000000
H     3.999000000    -3.903000000     0.958000000
O     4.450000000     3.558000000    -1.814000000
H     4.506000000     3.994000000    -2.664000000
H     3.631000000     3.877000000    -1.434000000
O    -0.455000000    -3.243000000    -7.173000000
H    -0.472000000    -2.360000000    -7.541000000
H    -0.167000000    -3.120000000    -6.269000000
O     3.355000000     0.903000000     3.510000000
H     3.531000000    -0.024000000     3.351000000
H     3.084000000     0.941000000     4.428000000
O    -1.410000000    -3.598000000    -3.609000000
H    -0.835000000    -3.880000000    -2.897000000
H    -1.220000000    -2.666000000    -3.715000000
O     5.263000000    -2.993000000    -1.905000000
H     4.817000000    -3.832000000    -2.019000000
H     5.022000000    -2.486000000    -2.679000000
O     3.512000000     1.805000000    -4.718000000
H     3.998000000     1.282000000    -5.355000000
H     3.149000000     1.164000000    -4.107000000
O    -0.022000000     4.690000000     2.828000000
H    -0.563000000     4.917000000     2.072000000
H    -0.632000000     4.676000000     3.565000000
O     2.559000000     1.951000000    -7.583000000
H     2.658000000     1.915000000    -6.631000000
H     2.542000000     2.886000000    -7.786000000
O    -6.090000000    -1.155000000    -1.039000000
H    -6.982000000    -0.884000000    -1.255000000
H    -6.152000000    -1.497000000    -0.148000000
O     0.208000000    -5.928000000    -0.154000000
H    -0.108000000    -6.791000000    -0.423000000
H     0.336000000    -5.453000000    -0.975000000
O    -1.369000000    -3.500000000     5.368000000
H    -2.038000000    -3.794000000     5.987000000
H    -1.857000000    -3.022000000     4.697000000
O     5.207000000     0.303000000     0.898000000
H     5.035000000     1.159000000     1.291000000
H     5.201000000     0.467000000    -0.045000000
O    -3.802000000    -2.793000000    -4.653000000
H    -4.507000000    -3.117000000    -4.091000000
H    -3.028000000    -3.279000000    -4.370000000
O    -1.502000000     4.198000000     5.526000000
H    -1.162000000     3.379000000     5.165000000
H    -0.953000000     4.369000000     6.291000000
O    -5.861000000    -0.592000000     3.247000000
H    -5.290000000     0.086000000     2.885000000
H    -6.091000000    -0.271000000     4.120000000
O    -3.278000000    -1.979000000     4.217000000
H    -3.169000000    -1.328000000     4.910000000
H    -4.093000000    -1.730000000     3.781000000
O    -5.102000000     4.571000000     1.409000000
H    -6.031000000     4.749000000     1.260000000
H    -5.065000000     3.631000000     1.589000000
O    -0.989000000     5.599000000     0.480000000
H    -1.661000000     6.212000000     0.183000000
H    -1.058000000     4.858000000    -0.123000000
O     4.963000000     0.277000000    -6.429000000
H     5.214000000    -0.052000000    -7.292000000
H     5.523000000    -0.202000000    -5.818000000
O    -1.105000000     3.570000000    -1.197000000
H    -1.727000000     2.869000000    -0.999000000
H    -1.593000000     4.171000000    -1.760000000
O     2.526000000     4.743000000     1.963000000
H     2.360000000     5.452000000     1.341000000
H     1.746000000     4.723000000     2.517000000
O     0.937000000    -2.321000000     4.962000000
H     0.932000000    -2.135000000     4.023000000
H     0.196000000    -2.912000000     5.093000000
O     0.830000000    -2.296000000     1.934000000
H     0.583000000    -1.421000000     1.634000000
H     1.706000000    -2.434000000     1.574000000
O     1.574000000     3.941000000    -0.807000000
H     1.656000000     4.049000000     0.140000000
H     0.748000000     3.472000000    -0.925000000
O     4.906000000     0.973000000    -2.096000000
H     4.045000000     0.602000000    -2.290000000
H     4.772000000     1.920000000    -2.133000000
O     3.502000000    -4.719000000    -6.591000000
H     3.200000000    -3.895000000    -6.209000000
H     4.284000000    -4.944000000    -6.087000000
O     4.191000000    -1.582000000     2.813000000
H     4.517000000    -0.899000000     2.227000000
H     3.999000000    -2.321000000     2.236000000
O     4.497000000     2.751000000     1.832000000
H     4.110000000     2.267000000     2.562000000
H     3.747000000     3.112000000     1.360000000
