161
-3020.84006
C     0.198000000    -1.413000000    -0.162000000
H     0.006000000    -2.477000000    -0.275000000
C    -0.945000000    -0.759000000     0.279000000
H    -1.828000000    -1.375000000     0.428000000
C    -0.928000000     0.608000000     0.487000000
C    -2.226000000     1.170000000     0.961000000
H    -2.641000000     0.512000000     1.726000000
H    -2.055000000     2.120000000     1.471000000
H    -2.983000000     1.191000000     0.173000000
C     0.144000000     1.365000000     0.128000000
H     0.175000000     2.446000000     0.232000000
C     1.253000000     0.768000000    -0.403000000
H     2.118000000     1.412000000    -0.543000000
C     1.305000000    -0.647000000    -0.563000000
C     2.508000000    -1.420000000    -1.182000000
O     3.551000000    -0.912000000    -1.486000000
O     2.354000000    -2.591000000    -1.277000000
O    -0.591000000    -5.846000000    -2.596000000
H    -0.693000000    -5.778000000    -1.646000000
H    -0.375000000    -4.957000000    -2.877000000
O     6.116000000     0.403000000    -4.870000000
H     5.441000000     0.896000000    -4.404000000
H     6.500000000    -0.166000000    -4.204000000
O    -6.845000000     2.527000000     3.773000000
H    -7.111000000     2.879000000     2.924000000
H    -5.915000000     2.324000000     3.668000000
O     3.381000000    -0.844000000    -4.743000000
H     3.794000000    -1.041000000    -3.902000000
H     4.089000000    -0.922000000    -5.382000000
O    -2.848000000    -4.636000000    -0.621000000
H    -2.902000000    -4.027000000    -1.358000000
H    -1.978000000    -4.485000000    -0.249000000
O    -0.118000000    -5.111000000     0.039000000
H     0.837000000    -5.116000000    -0.035000000
H    -0.322000000    -5.896000000     0.548000000
O    -1.468000000    -1.558000000     5.355000000
H    -1.284000000    -0.828000000     5.946000000
H    -1.926000000    -2.197000000     5.899000000
O     2.670000000    -3.715000000     3.654000000
H     2.940000000    -4.197000000     4.435000000
H     1.817000000    -4.087000000     3.426000000
O     0.255000000    -3.252000000    -2.834000000
H     0.704000000    -3.215000000    -3.679000000
H     0.960000000    -3.259000000    -2.187000000
O     5.686000000    -2.416000000    -2.717000000
H     5.049000000    -2.041000000    -2.110000000
H     6.511000000    -1.986000000    -2.495000000
O    -0.873000000     2.910000000    -3.382000000
H    -0.439000000     3.559000000    -3.936000000
H    -0.206000000     2.242000000    -3.227000000
O    -5.484000000    -2.563000000     2.201000000
H    -5.184000000    -1.991000000     2.908000000
H    -5.493000000    -3.438000000     2.589000000
O    -3.841000000    -0.743000000     3.910000000
H    -3.043000000    -0.933000000     4.403000000
H    -4.172000000     0.069000000     4.293000000
O    -4.888000000     2.333000000    -1.403000000
H    -4.474000000     1.620000000    -1.889000000
H    -4.189000000     2.976000000    -1.279000000
O     2.486000000    -5.241000000    -0.920000000
H     2.581000000    -4.306000000    -0.741000000
H     3.204000000    -5.651000000    -0.438000000
O     3.752000000     3.785000000    -4.271000000
H     3.884000000     3.086000000    -3.631000000
H     4.405000000     4.446000000    -4.042000000
O    -1.361000000     2.252000000     5.091000000
H    -1.142000000     1.637000000     5.791000000
H    -0.771000000     2.018000000     4.374000000
O     2.975000000    -5.480000000    -4.030000000
H     2.871000000    -5.060000000    -3.177000000
H     3.818000000    -5.163000000    -4.353000000
O     0.518000000     1.806000000     3.416000000
H     0.286000000     1.454000000     2.557000000
H     1.010000000     1.102000000     3.838000000
O     5.688000000    -5.296000000    -1.852000000
H     6.469000000    -4.890000000    -2.228000000
H     5.126000000    -4.558000000    -1.614000000
O    -5.091000000     5.347000000     2.426000000
H    -4.493000000     4.788000000     2.922000000
H    -5.697000000     5.691000000     3.081000000
O    -0.920000000    -3.533000000     2.849000000
H    -1.065000000    -3.075000000     3.678000000
H    -0.676000000    -2.841000000     2.234000000
O     4.714000000    -3.291000000     0.491000000
H     4.398000000    -4.161000000     0.737000000
H     3.986000000    -2.901000000     0.006000000
O     8.055000000    -1.419000000     1.325000000
H     8.813000000    -1.344000000     0.745000000
H     7.331000000    -1.045000000     0.823000000
O    -6.221000000     0.725000000     0.459000000
H    -5.721000000     1.311000000    -0.109000000
H    -7.034000000     1.200000000     0.637000000
O     1.383000000     0.919000000    -4.121000000
H     1.361000000     0.923000000    -3.164000000
H     1.966000000     0.194000000    -4.344000000
O     1.436000000     6.475000000    -0.013000000
H     1.121000000     7.087000000     0.652000000
H     0.846000000     6.602000000    -0.755000000
O    -1.621000000    -6.109000000     2.655000000
H    -1.312000000    -5.203000000     2.617000000
H    -1.046000000    -6.583000000     2.055000000
O    -2.257000000     6.248000000     3.229000000
H    -2.315000000     5.942000000     4.134000000
H    -2.214000000     5.447000000     2.707000000
O     5.139000000    -0.826000000     2.788000000
H     5.352000000    -0.668000000     1.868000000
H     5.217000000    -1.774000000     2.893000000
O    -1.774000000    -1.558000000    -3.680000000
H    -1.635000000    -1.713000000    -4.615000000
H    -1.016000000    -1.960000000    -3.256000000
O    -4.641000000     1.690000000     5.396000000
H    -3.801000000     1.871000000     5.818000000
H    -5.275000000     1.691000000     6.113000000
O    -2.318000000     4.197000000    -1.547000000
H    -1.749000000     3.699000000    -2.133000000
H    -2.814000000     4.775000000    -2.127000000
O     5.859000000    -0.213000000    -0.027000000
H     6.443000000     0.545000000    -0.038000000
H     5.199000000    -0.016000000    -0.692000000
O    -3.176000000     1.835000000    -4.153000000
H    -2.398000000     2.317000000    -3.873000000
H    -3.231000000     1.095000000    -3.547000000
O    -3.599000000    -0.148000000    -2.235000000
H    -2.905000000    -0.608000000    -2.707000000
H    -3.576000000    -0.520000000    -1.353000000
O    -4.477000000    -1.264000000    -0.077000000
H    -5.040000000    -0.502000000     0.063000000
H    -4.771000000    -1.902000000     0.573000000
O    -3.279000000     3.614000000     3.380000000
H    -2.800000000     3.027000000     3.965000000
H    -2.661000000     3.809000000     2.676000000
O    -5.005000000     5.459000000    -0.304000000
H    -4.976000000     5.091000000     0.580000000
H    -5.913000000     5.743000000    -0.415000000
O     0.906000000     4.432000000     4.069000000
H     0.698000000     3.572000000     3.703000000
H     1.449000000     4.242000000     4.834000000
O    -1.599000000     4.956000000     0.915000000
H    -1.320000000     5.815000000     0.600000000
H    -1.976000000     4.529000000     0.146000000
O    -7.441000000     3.014000000    -2.291000000
H    -7.976000000     2.510000000    -1.679000000
H    -6.560000000     2.989000000    -1.917000000
O     2.720000000     4.400000000     1.609000000
H     2.203000000     5.102000000     1.215000000
H     2.378000000     4.321000000     2.499000000
O     2.153000000    -0.523000000     3.315000000
H     1.553000000    -1.266000000     3.255000000
H     3.004000000    -0.881000000     3.062000000
O     4.669000000     3.088000000    -0.542000000
H     4.105000000     3.520000000     0.100000000
H     5.418000000     2.778000000    -0.033000000
O    -4.652000000    -2.812000000    -3.308000000
H    -4.984000000    -2.157000000    -2.693000000
H    -3.798000000    -2.475000000    -3.578000000
O     4.535000000     1.589000000    -2.796000000
H     4.266000000     0.787000000    -2.349000000
H     4.648000000     2.229000000    -2.093000000
O     5.548000000    -4.516000000    -4.849000000
H     5.708000000    -3.767000000    -4.276000000
H     6.353000000    -5.032000000    -4.799000000
