161
-3061.62564
C    -0.641000000     0.156000000     1.337000000
H    -1.173000000     0.442000000     2.242000000
C    -0.771000000     1.033000000     0.233000000
H    -1.409000000     1.876000000     0.485000000
C    -0.115000000     0.781000000    -0.940000000
C    -0.202000000     1.774000000    -2.004000000
H     0.645000000     2.462000000    -1.970000000
H    -0.189000000     1.273000000    -2.974000000
H    -1.097000000     2.376000000    -1.829000000
C     0.552000000    -0.396000000    -1.119000000
H     0.930000000    -0.645000000    -2.108000000
C     0.680000000    -1.344000000    -0.085000000
H     1.213000000    -2.283000000    -0.214000000
C     0.106000000    -1.015000000     1.148000000
C     0.405000000    -1.930000000     2.297000000
O     1.229000000    -2.843000000     2.188000000
O    -0.167000000    -1.723000000     3.319000000
O    -3.077000000     0.401000000     4.802000000
H    -3.186000000     0.819000000     5.656000000
H    -2.464000000    -0.316000000     4.963000000
O    -3.538000000    -2.246000000     7.398000000
H    -2.997000000    -2.393000000     6.623000000
H    -2.980000000    -1.738000000     7.987000000
O     4.526000000    -1.499000000    -0.707000000
H     4.953000000    -0.692000000    -0.995000000
H     4.271000000    -1.937000000    -1.519000000
O     1.695000000     5.920000000    -4.176000000
H     1.458000000     5.363000000    -3.434000000
H     2.285000000     6.576000000    -3.803000000
O    -2.241000000    -4.230000000     2.947000000
H    -1.498000000    -4.531000000     2.424000000
H    -2.095000000    -3.289000000     3.052000000
O    -1.401000000    -2.622000000     5.500000000
H    -0.591000000    -2.542000000     6.003000000
H    -1.130000000    -2.510000000     4.589000000
O    -0.414000000     2.836000000     4.795000000
H    -0.156000000     3.571000000     4.238000000
H     0.244000000     2.163000000     4.623000000
O    -4.700000000    -0.251000000    -0.643000000
H    -4.604000000     0.655000000    -0.351000000
H    -5.027000000    -0.718000000     0.126000000
O     1.034000000    -5.503000000    -2.134000000
H     1.125000000    -6.219000000    -2.763000000
H     1.271000000    -5.893000000    -1.292000000
O    -4.422000000     2.737000000    -0.286000000
H    -3.956000000     2.655000000     0.546000000
H    -5.337000000     2.868000000    -0.036000000
O    -2.662000000     1.784000000    -5.102000000
H    -3.298000000     1.568000000    -4.420000000
H    -1.905000000     1.231000000    -4.908000000
O    -2.285000000     2.074000000     6.594000000
H    -1.781000000     2.482000000     5.890000000
H    -1.622000000     1.738000000     7.198000000
O    -1.647000000    -5.214000000    -0.417000000
H    -1.372000000    -5.372000000     0.486000000
H    -0.908000000    -5.514000000    -0.948000000
O     4.330000000     3.490000000     0.684000000
H     4.327000000     2.787000000     0.035000000
H     3.528000000     3.354000000     1.189000000
O    -2.877000000     4.851000000    -1.194000000
H    -2.160000000     4.992000000    -0.576000000
H    -3.321000000     4.067000000    -0.870000000
O    -2.637000000     4.587000000    -4.153000000
H    -3.226000000     3.838000000    -4.244000000
H    -2.541000000     4.704000000    -3.208000000
O     1.886000000    -4.150000000     6.749000000
H     2.265000000    -4.204000000     5.872000000
H     2.555000000    -4.523000000     7.323000000
O     0.675000000     6.836000000    -0.298000000
H     0.536000000     7.514000000    -0.960000000
H     1.583000000     6.562000000    -0.423000000
O     1.170000000    -3.283000000    -3.870000000
H     1.083000000    -4.063000000    -3.323000000
H     1.243000000    -3.622000000    -4.762000000
O     3.164000000    -1.981000000    -2.945000000
H     2.333000000    -2.399000000    -3.170000000
H     2.975000000    -1.043000000    -2.971000000
O    -4.955000000     2.672000000    -3.038000000
H    -4.553000000     2.620000000    -2.171000000
H    -5.891000000     2.562000000    -2.875000000
O     5.723000000    -3.312000000     2.989000000
H     6.342000000    -3.647000000     3.637000000
H     4.941000000    -3.853000000     3.102000000
O    -4.587000000    -2.802000000     3.824000000
H    -5.190000000    -3.149000000     4.481000000
H    -3.849000000    -3.411000000     3.830000000
O     3.488000000    -1.534000000     1.845000000
H     2.712000000    -2.093000000     1.892000000
H     3.743000000    -1.555000000     0.923000000
O     3.079000000     0.833000000    -3.644000000
H     2.431000000     1.318000000    -4.155000000
H     3.873000000     0.857000000    -4.179000000
O     3.186000000     1.341000000    -0.747000000
H     3.126000000     0.406000000    -0.547000000
H     3.061000000     1.392000000    -1.695000000
O     3.662000000     0.632000000     3.472000000
H     4.292000000     0.453000000     4.170000000
H     3.638000000    -0.176000000     2.959000000
O     2.415000000    -6.967000000     3.980000000
H     2.926000000    -7.514000000     3.383000000
H     1.513000000    -7.264000000     3.865000000
O     0.976000000     0.443000000     4.631000000
H     1.748000000     0.404000000     4.066000000
H     0.480000000    -0.346000000     4.411000000
O     2.004000000     2.225000000     1.843000000
H     1.990000000     1.765000000     1.004000000
H     2.232000000     1.550000000     2.483000000
O     2.040000000    -6.027000000     0.279000000
H     2.309000000    -6.901000000    -0.005000000
H     2.828000000    -5.492000000     0.188000000
O    -1.244000000     4.324000000    -6.454000000
H    -1.726000000     4.355000000    -5.628000000
H    -0.360000000     4.051000000    -6.206000000
O    -2.711000000    -6.822000000     4.062000000
H    -2.384000000    -5.964000000     3.790000000
H    -3.073000000    -7.205000000     3.263000000
O    -1.430000000    -2.047000000    -4.334000000
H    -0.641000000    -2.307000000    -3.858000000
H    -1.844000000    -1.393000000    -3.771000000
O     1.418000000     1.390000000    -5.745000000
H     2.205000000     1.022000000    -6.146000000
H     1.411000000     2.306000000    -6.025000000
O     1.561000000     4.053000000    -6.262000000
H     1.616000000     4.802000000    -5.669000000
H     2.378000000     4.081000000    -6.760000000
O    -0.027000000    -5.211000000     1.728000000
H     0.523000000    -4.510000000     2.078000000
H     0.569000000    -5.741000000     1.198000000
O    -3.154000000     2.223000000     2.489000000
H    -3.389000000     3.118000000     2.731000000
H    -2.620000000     1.910000000     3.219000000
O     4.248000000    -4.452000000     0.336000000
H     4.822000000    -3.822000000     0.773000000
H     4.653000000    -4.591000000    -0.521000000
O    -5.730000000     0.555000000     4.108000000
H    -4.829000000     0.268000000     4.256000000
H    -5.707000000     0.984000000     3.252000000
O    -3.410000000     7.465000000    -2.111000000
H    -3.315000000     6.557000000    -1.823000000
H    -3.971000000     7.414000000    -2.885000000
O     3.366000000     5.234000000    -1.209000000
H     3.728000000     4.531000000    -0.668000000
H     4.114000000     5.799000000    -1.399000000
O    -0.957000000     4.785000000     0.726000000
H    -0.278000000     5.205000000     0.199000000
H    -0.475000000     4.259000000     1.364000000
O     6.150000000    -0.278000000     2.270000000
H     6.161000000     0.236000000     1.462000000
H     5.392000000    -0.855000000     2.175000000
O    -2.088000000    -2.659000000    -1.748000000
H    -2.072000000    -3.403000000    -1.145000000
H    -1.788000000    -1.918000000    -1.222000000
O     0.843000000     4.480000000     2.903000000
H     1.296000000     3.809000000     2.391000000
H     1.493000000     5.174000000     3.015000000
O     2.920000000    -4.206000000     4.079000000
H     2.316000000    -3.658000000     3.578000000
H     2.685000000    -5.103000000     3.838000000
O    -5.714000000    -1.435000000     1.792000000
H    -4.848000000    -1.577000000     2.173000000
H    -6.323000000    -1.623000000     2.506000000
