161
-3042.76127
C    -0.553000000     0.599000000     1.254000000
H    -0.879000000     1.096000000     2.163000000
C    -0.951000000     0.927000000    -0.026000000
H    -1.791000000     1.611000000    -0.112000000
C    -0.276000000     0.393000000    -1.172000000
C    -0.712000000     0.702000000    -2.528000000
H     0.008000000     1.453000000    -2.861000000
H    -0.770000000    -0.154000000    -3.204000000
H    -1.691000000     1.173000000    -2.417000000
C     0.668000000    -0.593000000    -0.987000000
H     1.136000000    -1.072000000    -1.843000000
C     1.075000000    -0.953000000     0.307000000
H     1.781000000    -1.746000000     0.538000000
C     0.478000000    -0.364000000     1.428000000
C     0.754000000    -0.873000000     2.815000000
O     1.792000000    -1.544000000     2.970000000
O    -0.065000000    -0.651000000     3.677000000
O    -2.505000000    -1.128000000     2.687000000
H    -2.754000000    -1.637000000     3.458000000
H    -1.589000000    -0.896000000     2.838000000
O    -3.662000000     1.604000000     5.846000000
H    -3.772000000     1.841000000     4.926000000
H    -2.804000000     1.182000000     5.884000000
O    -6.475000000     1.686000000     0.258000000
H    -7.165000000     1.150000000     0.648000000
H    -6.122000000     1.147000000    -0.450000000
O    -2.722000000    -3.326000000     1.051000000
H    -2.676000000    -2.498000000     1.530000000
H    -2.172000000    -3.188000000     0.280000000
O    -0.451000000    -4.278000000    -6.051000000
H    -0.358000000    -4.448000000    -6.988000000
H    -0.525000000    -3.325000000    -5.987000000
O    -1.264000000     0.344000000     5.804000000
H    -0.959000000     0.208000000     4.907000000
H    -0.474000000     0.270000000     6.339000000
O    -1.201000000     3.027000000     4.008000000
H    -1.180000000     3.847000000     3.514000000
H    -0.297000000     2.897000000     4.295000000
O    -4.968000000     0.803000000    -1.912000000
H    -4.624000000     0.363000000    -1.134000000
H    -5.569000000     0.167000000    -2.300000000
O     2.950000000    -3.232000000    -3.140000000
H     2.884000000    -2.592000000    -3.850000000
H     2.410000000    -3.967000000    -3.430000000
O    -4.478000000     3.301000000    -2.595000000
H    -4.474000000     3.576000000    -1.678000000
H    -4.403000000     2.347000000    -2.559000000
O    -2.060000000     3.704000000    -6.136000000
H    -2.512000000     4.207000000    -5.458000000
H    -1.244000000     3.423000000    -5.721000000
O    -4.120000000     4.009000000     3.793000000
H    -3.615000000     3.348000000     3.319000000
H    -3.745000000     4.010000000     4.673000000
O    -3.735000000    -4.882000000    -3.075000000
H    -3.017000000    -4.259000000    -2.964000000
H    -4.528000000    -4.359000000    -2.958000000
O     1.113000000     0.225000000     7.209000000
H     1.705000000    -0.102000000     6.531000000
H     1.235000000    -0.376000000     7.944000000
O     1.060000000    -4.285000000    -1.322000000
H     1.282000000    -4.840000000    -0.574000000
H     1.890000000    -4.161000000    -1.783000000
O     3.393000000     4.383000000    -1.112000000
H     2.499000000     4.723000000    -1.070000000
H     3.808000000     4.699000000    -0.310000000
O    -0.279000000    -2.787000000     5.263000000
H    -0.312000000    -2.073000000     4.626000000
H     0.364000000    -2.500000000     5.911000000
O    -1.939000000    -3.643000000     7.344000000
H    -1.364000000    -3.815000000     6.598000000
H    -1.366000000    -3.255000000     8.004000000
O    -2.677000000     5.090000000    -4.034000000
H    -3.376000000     4.543000000    -3.677000000
H    -2.232000000     5.443000000    -3.264000000
O     4.138000000    -1.366000000     1.851000000
H     4.662000000    -1.454000000     2.647000000
H     3.232000000    -1.433000000     2.152000000
O    -0.767000000    -5.384000000     5.010000000
H    -0.616000000    -4.441000000     5.084000000
H    -0.321000000    -5.635000000     4.201000000
O     3.895000000     0.914000000     0.528000000
H     4.088000000     0.026000000     0.830000000
H     4.332000000     0.978000000    -0.321000000
O     0.609000000     3.692000000    -4.892000000
H     1.287000000     3.886000000    -5.539000000
H     0.477000000     4.519000000    -4.427000000
O    -3.099000000    -2.181000000    -3.401000000
H    -2.515000000    -1.836000000    -4.076000000
H    -2.570000000    -2.177000000    -2.603000000
O    -6.275000000     3.026000000    -4.505000000
H    -5.766000000     2.636000000    -5.216000000
H    -5.630000000     3.214000000    -3.824000000
O    -0.175000000    -6.088000000     2.313000000
H    -0.919000000    -5.662000000     1.886000000
H     0.512000000    -6.094000000     1.646000000
O     5.475000000    -0.436000000    -2.412000000
H     4.618000000    -0.311000000    -2.819000000
H     6.004000000     0.291000000    -2.739000000
O    -3.755000000     1.256000000     3.049000000
H    -4.116000000     1.377000000     2.170000000
H    -3.261000000     0.438000000     2.994000000
O     3.929000000     2.743000000     2.590000000
H     4.586000000     2.277000000     3.107000000
H     3.659000000     2.112000000     1.922000000
O     1.958000000     2.792000000     4.454000000
H     2.749000000     2.926000000     3.932000000
H     1.850000000     1.842000000     4.486000000
O     1.611000000     2.636000000     0.210000000
H     2.257000000     1.931000000     0.168000000
H     0.768000000     2.185000000     0.259000000
O     0.915000000     5.162000000     0.361000000
H     1.157000000     4.257000000     0.166000000
H     0.333000000     5.097000000     1.118000000
O     2.763000000     0.226000000     4.874000000
H     2.306000000    -0.548000000     4.544000000
H     3.684000000    -0.031000000     4.897000000
O    -5.534000000    -0.952000000    -4.784000000
H    -6.186000000    -1.634000000    -4.945000000
H    -4.758000000    -1.428000000    -4.490000000
O     1.943000000    -1.795000000    -5.232000000
H     2.643000000    -1.184000000    -5.463000000
H     1.136000000    -1.315000000    -5.415000000
O     0.404000000     0.796000000    -5.602000000
H     0.893000000     0.866000000    -6.422000000
H     0.439000000     1.675000000    -5.226000000
O     2.164000000    -5.527000000     1.058000000
H     2.994000000    -5.069000000     0.928000000
H     2.389000000    -6.455000000     0.986000000
O    -1.099000000    -1.439000000    -5.772000000
H    -1.005000000    -1.729000000    -6.680000000
H    -0.815000000    -0.525000000    -5.783000000
O    -5.034000000     3.944000000     0.117000000
H    -5.319000000     4.519000000     0.828000000
H    -5.699000000     3.255000000     0.086000000
O     4.599000000    -3.990000000     0.279000000
H     4.073000000    -3.299000000     0.680000000
H     5.153000000    -3.532000000    -0.354000000
O     6.891000000    -1.026000000     0.333000000
H     6.983000000    -0.247000000    -0.215000000
H     6.281000000    -0.763000000     1.022000000
O    -1.503000000    -2.833000000    -1.245000000
H    -0.955000000    -2.048000000    -1.242000000
H    -0.888000000    -3.554000000    -1.376000000
O    -3.721000000    -2.717000000     4.562000000
H    -4.320000000    -3.423000000     4.318000000
H    -2.867000000    -3.144000000     4.638000000
O     0.077000000     5.391000000     2.982000000
H    -0.072000000     5.589000000     3.906000000
H     0.934000000     5.773000000     2.790000000
O     5.933000000    -1.781000000     3.802000000
H     6.778000000    -1.759000000     4.251000000
H     5.523000000    -2.592000000     4.104000000
O     2.065000000    -4.252000000     3.518000000
H     1.909000000    -3.339000000     3.275000000
H     1.950000000    -4.739000000     2.702000000
O    -4.497000000    -0.453000000     0.547000000
H    -3.659000000    -0.686000000     0.947000000
H    -5.133000000    -1.030000000     0.971000000
O     4.242000000    -4.523000000     4.882000000
H     3.305000000    -4.426000000     4.717000000
H     4.302000000    -4.720000000     5.817000000
