161
-3050.76466
C     0.671000000    -0.555000000     1.210000000
H     1.076000000    -0.793000000     2.190000000
C    -0.662000000    -0.025000000     1.185000000
H    -1.207000000     0.182000000     2.102000000
C    -1.238000000     0.408000000    -0.066000000
C    -2.545000000     1.136000000    -0.138000000
H    -2.443000000     2.022000000    -0.768000000
H    -3.360000000     0.540000000    -0.553000000
H    -2.808000000     1.366000000     0.896000000
C    -0.371000000     0.375000000    -1.158000000
H    -0.739000000     0.589000000    -2.158000000
C     0.877000000    -0.221000000    -1.104000000
H     1.593000000    -0.168000000    -1.920000000
C     1.401000000    -0.754000000     0.083000000
C     2.877000000    -1.210000000     0.088000000
O     3.610000000    -0.897000000    -0.811000000
O     3.267000000    -1.996000000     0.927000000
O    -1.190000000     4.964000000     1.107000000
H    -0.510000000     4.336000000     0.862000000
H    -1.701000000     5.089000000     0.308000000
O     3.891000000    -1.621000000     6.344000000
H     4.362000000    -0.791000000     6.420000000
H     4.207000000    -2.002000000     5.525000000
O     3.886000000    -1.401000000    -3.203000000
H     3.664000000    -0.562000000    -3.608000000
H     3.916000000    -1.213000000    -2.265000000
O    -3.024000000    -3.580000000     0.832000000
H    -3.453000000    -3.091000000     0.131000000
H    -3.131000000    -4.498000000     0.584000000
O     2.034000000    -3.584000000    -2.691000000
H     2.195000000    -4.338000000    -3.259000000
H     2.603000000    -2.897000000    -3.038000000
O     6.848000000    -0.214000000     2.545000000
H     6.539000000    -0.648000000     1.750000000
H     6.907000000     0.711000000     2.305000000
O     6.422000000    -3.482000000    -1.668000000
H     6.202000000    -3.262000000    -2.573000000
H     5.604000000    -3.812000000    -1.297000000
O    -3.959000000     2.523000000    -5.383000000
H    -3.102000000     2.770000000    -5.035000000
H    -3.874000000     2.629000000    -6.330000000
O    -2.717000000    -0.193000000     6.311000000
H    -3.596000000     0.186000000     6.344000000
H    -2.135000000     0.561000000     6.216000000
O     3.194000000    -5.362000000     4.298000000
H     2.322000000    -5.673000000     4.054000000
H     3.223000000    -4.459000000     3.982000000
O     5.094000000    -3.702000000     1.632000000
H     4.648000000    -2.885000000     1.411000000
H     4.416000000    -4.373000000     1.559000000
O    -5.097000000     0.437000000     2.870000000
H    -4.945000000     1.382000000     2.860000000
H    -4.230000000     0.053000000     2.733000000
O    -1.676000000     3.940000000    -4.604000000
H    -0.723000000     3.936000000    -4.699000000
H    -1.900000000     4.861000000    -4.476000000
O    -7.059000000     4.299000000    -0.123000000
H    -6.642000000     3.581000000    -0.598000000
H    -7.845000000     4.498000000    -0.631000000
O     3.437000000     2.057000000     2.380000000
H     3.892000000     1.522000000     3.029000000
H     3.607000000     2.959000000     2.652000000
O     5.767000000    -2.018000000     4.115000000
H     6.362000000    -1.422000000     3.660000000
H     5.300000000    -2.472000000     3.413000000
O     0.789000000     2.666000000     1.731000000
H     1.694000000     2.492000000     1.991000000
H     0.433000000     1.804000000     1.513000000
O    -3.803000000     4.727000000    -0.314000000
H    -3.584000000     4.676000000    -1.244000000
H    -4.477000000     5.404000000    -0.264000000
O    -5.919000000     2.034000000    -1.377000000
H    -6.323000000     1.402000000    -0.782000000
H    -5.232000000     1.537000000    -1.823000000
O    -0.907000000    -5.754000000    -0.970000000
H    -1.593000000    -5.197000000    -1.339000000
H    -0.153000000    -5.172000000    -0.872000000
O    -4.862000000     3.023000000     1.908000000
H    -5.651000000     3.427000000     2.269000000
H    -4.577000000     3.625000000     1.221000000
O     6.666000000     1.535000000    -0.989000000
H     6.758000000     0.672000000    -0.584000000
H     6.429000000     2.115000000    -0.265000000
O     3.637000000    -6.725000000     0.702000000
H     3.870000000    -7.137000000    -0.130000000
H     3.351000000    -5.844000000     0.461000000
O    -0.205000000    -3.569000000     1.198000000
H     0.121000000    -2.863000000     0.639000000
H    -1.139000000    -3.383000000     1.299000000
O     1.200000000    -4.452000000     5.997000000
H     1.599000000    -4.064000000     6.776000000
H     1.852000000    -4.328000000     5.307000000
O     6.159000000    -1.120000000     0.058000000
H     6.390000000    -1.899000000    -0.447000000
H     5.212000000    -1.035000000    -0.053000000
O     0.903000000    -5.105000000     3.054000000
H     0.067000000    -5.261000000     3.494000000
H     0.770000000    -4.289000000     2.571000000
O     2.588000000    -4.369000000    -0.009000000
H     2.700000000    -3.500000000     0.376000000
H     2.421000000    -4.201000000    -0.936000000
O    -1.987000000     3.167000000     3.235000000
H    -1.277000000     3.573000000     2.739000000
H    -2.779000000     3.384000000     2.742000000
O     1.584000000    -0.596000000    -6.489000000
H     1.847000000    -0.038000000    -5.757000000
H     0.721000000    -0.267000000    -6.743000000
O     1.637000000    -0.915000000     5.204000000
H     1.122000000    -0.318000000     5.746000000
H     2.381000000    -1.157000000     5.755000000
O    -7.017000000    -0.282000000     0.474000000
H    -7.819000000    -0.394000000     0.985000000
H    -6.356000000    -0.028000000     1.119000000
O    -6.815000000    -1.292000000    -2.702000000
H    -5.991000000    -1.725000000    -2.474000000
H    -6.567000000    -0.386000000    -2.883000000
O     2.695000000     1.468000000    -4.422000000
H     2.868000000     2.058000000    -5.156000000
H     1.740000000     1.437000000    -4.359000000
O    -6.456000000    -3.156000000     0.580000000
H    -6.529000000    -2.215000000     0.425000000
H    -5.897000000    -3.229000000     1.354000000
O    -4.416000000     0.618000000    -3.161000000
H    -4.088000000     1.153000000    -3.884000000
H    -3.918000000    -0.197000000    -3.221000000
O    -0.792000000    -3.126000000     4.429000000
H    -0.025000000    -2.883000000     3.911000000
H    -0.444000000    -3.303000000     5.304000000
O    -1.782000000    -1.662000000    -4.549000000
H    -2.659000000    -1.906000000    -4.842000000
H    -1.207000000    -1.924000000    -5.268000000
O     3.488000000     1.831000000    -0.479000000
H     3.828000000     0.976000000    -0.741000000
H     3.121000000     1.686000000     0.393000000
O    -1.086000000    -3.083000000    -2.410000000
H    -0.143000000    -3.178000000    -2.544000000
H    -1.407000000    -2.698000000    -3.225000000
O    -3.170000000    -1.443000000     2.792000000
H    -3.031000000    -2.194000000     2.215000000
H    -3.067000000    -1.798000000     3.675000000
O    -3.790000000    -2.500000000    -1.735000000
H    -2.852000000    -2.522000000    -1.545000000
H    -3.897000000    -3.090000000    -2.481000000
O    -2.031000000     2.463000000     6.039000000
H    -2.718000000     3.094000000     6.255000000
H    -1.814000000     2.648000000     5.125000000
O    -0.035000000     1.287000000    -4.561000000
H    -0.265000000     2.013000000    -3.981000000
H    -0.673000000     0.604000000    -4.355000000
O    -4.422000000     3.971000000    -2.945000000
H    -4.310000000     3.623000000    -3.830000000
H    -5.214000000     3.544000000    -2.619000000
O     2.515000000     3.649000000    -2.048000000
H     2.891000000     3.376000000    -2.884000000
H     2.717000000     2.931000000    -1.448000000
O     6.457000000    -1.262000000    -4.364000000
H     6.927000000    -0.453000000    -4.567000000
H     5.649000000    -0.970000000    -3.942000000
O     3.018000000    -2.569000000     3.766000000
H     3.158000000    -2.211000000     2.890000000
H     2.329000000    -2.021000000     4.141000000
