161
-3023.95344
C    -0.918000000     0.861000000     0.773000000
H    -1.685000000     1.493000000     1.214000000
C    -0.910000000     0.720000000    -0.586000000
H    -1.472000000     1.406000000    -1.214000000
C     0.096000000     0.034000000    -1.235000000
C    -0.038000000    -0.161000000    -2.757000000
H     0.130000000    -1.223000000    -2.945000000
H    -1.006000000     0.108000000    -3.185000000
H     0.723000000     0.388000000    -3.315000000
C     0.987000000    -0.671000000    -0.440000000
H     1.658000000    -1.382000000    -0.915000000
C     0.927000000    -0.675000000     0.973000000
H     1.597000000    -1.385000000     1.451000000
C    -0.016000000     0.155000000     1.575000000
C    -0.005000000     0.171000000     3.093000000
O     0.721000000    -0.563000000     3.764000000
O    -0.794000000     0.732000000     3.750000000
O    -3.239000000     1.907000000     3.978000000
H    -3.921000000     1.310000000     3.671000000
H    -2.419000000     1.485000000     3.724000000
O     3.623000000    -1.866000000     6.824000000
H     2.743000000    -1.561000000     6.605000000
H     4.066000000    -1.090000000     7.169000000
O    -4.719000000     4.809000000     0.204000000
H    -4.907000000     4.436000000     1.065000000
H    -3.764000000     4.830000000     0.155000000
O     0.921000000    -4.003000000     0.608000000
H     1.167000000    -4.195000000     1.514000000
H     1.750000000    -4.012000000     0.129000000
O    -3.539000000    -2.292000000    -4.196000000
H    -4.158000000    -2.520000000    -3.503000000
H    -3.423000000    -1.345000000    -4.112000000
O    -1.264000000    -3.026000000    -1.128000000
H    -0.630000000    -2.927000000    -0.418000000
H    -1.617000000    -2.145000000    -1.258000000
O    -2.010000000    -0.632000000     5.743000000
H    -2.930000000    -0.431000000     5.569000000
H    -1.527000000    -0.135000000     5.082000000
O    -3.481000000    -2.373000000     2.306000000
H    -2.624000000    -2.369000000     2.732000000
H    -3.343000000    -1.903000000     1.484000000
O    -0.481000000     4.527000000     3.400000000
H     0.126000000     4.730000000     2.688000000
H    -1.298000000     4.294000000     2.960000000
O    -4.025000000     0.289000000    -3.421000000
H    -4.931000000     0.597000000    -3.403000000
H    -3.611000000     0.803000000    -4.115000000
O    -2.168000000     5.357000000    -2.511000000
H    -2.741000000     4.766000000    -2.999000000
H    -1.287000000     5.149000000    -2.824000000
O     4.567000000     0.332000000     0.050000000
H     4.497000000    -0.201000000    -0.742000000
H     5.507000000     0.392000000     0.216000000
O     3.150000000    -3.632000000    -0.852000000
H     3.410000000    -3.061000000    -1.575000000
H     3.592000000    -3.266000000    -0.086000000
O    -1.993000000     3.688000000     7.107000000
H    -1.234000000     3.902000000     7.649000000
H    -1.632000000     3.186000000     6.376000000
O     0.411000000    -0.322000000     8.965000000
H     0.428000000    -0.296000000     8.008000000
H     1.269000000    -0.670000000     9.210000000
O     2.019000000     1.377000000    -6.711000000
H     2.737000000     1.096000000    -6.145000000
H     2.358000000     2.150000000    -7.163000000
O    -1.634000000     5.176000000     0.176000000
H    -1.808000000     5.279000000    -0.759000000
H    -0.923000000     4.538000000     0.219000000
O     3.176000000    -1.444000000     3.771000000
H     3.412000000    -1.470000000     4.698000000
H     2.234000000    -1.272000000     3.768000000
O     4.740000000     0.679000000     3.329000000
H     4.362000000    -0.186000000     3.486000000
H     5.161000000     0.605000000     2.473000000
O    -3.140000000     1.889000000    -5.717000000
H    -3.401000000     2.721000000    -5.322000000
H    -2.371000000     2.106000000    -6.245000000
O    -1.200000000    -3.455000000     3.677000000
H    -0.461000000    -4.049000000     3.549000000
H    -0.801000000    -2.588000000     3.757000000
O     3.998000000     1.195000000     6.821000000
H     3.652000000     1.764000000     6.134000000
H     4.784000000     0.806000000     6.436000000
O    -0.017000000     2.489000000     5.622000000
H    -0.213000000     3.118000000     4.928000000
H    -0.010000000     1.640000000     5.180000000
O     2.506000000    -6.207000000    -3.271000000
H     2.202000000    -5.343000000    -2.995000000
H     3.378000000    -6.290000000    -2.883000000
O     2.404000000     2.062000000    -0.290000000
H     3.146000000     1.489000000    -0.095000000
H     1.657000000     1.468000000    -0.369000000
O    -4.939000000    -1.093000000     5.293000000
H    -4.423000000    -1.749000000     4.825000000
H    -5.616000000    -0.830000000     4.668000000
O     0.283000000     3.569000000    -1.004000000
H     0.355000000     4.039000000    -1.835000000
H     1.092000000     3.061000000    -0.945000000
O     1.327000000    -0.130000000     6.309000000
H     1.139000000    -0.140000000     5.371000000
H     1.926000000     0.608000000     6.425000000
O    -2.626000000    -1.997000000     8.079000000
H    -2.455000000    -1.543000000     7.254000000
H    -3.543000000    -1.803000000     8.274000000
O     2.124000000    -2.045000000    -4.517000000
H     1.489000000    -1.689000000    -5.138000000
H     1.626000000    -2.684000000    -4.005000000
O    -0.750000000     2.630000000    -6.542000000
H    -0.481000000     3.515000000    -6.789000000
H     0.030000000     2.094000000    -6.684000000
O     0.719000000    -3.830000000    -2.963000000
H     0.147000000    -3.620000000    -2.225000000
H     0.211000000    -3.589000000    -3.737000000
O     3.426000000     2.848000000     4.792000000
H     3.775000000     3.700000000     4.529000000
H     3.898000000     2.218000000     4.248000000
O     4.043000000     0.192000000    -5.416000000
H     3.561000000    -0.623000000    -5.281000000
H     4.613000000     0.012000000    -6.163000000
O     0.199000000     4.644000000    -3.557000000
H     0.158000000     4.385000000    -4.478000000
H     0.936000000     5.252000000    -3.512000000
O    -2.239000000    -1.368000000    -7.870000000
H    -2.601000000    -2.096000000    -8.374000000
H    -2.945000000    -1.114000000    -7.275000000
O     0.205000000    -0.988000000    -6.644000000
H     0.688000000    -0.180000000    -6.816000000
H    -0.661000000    -0.835000000    -7.023000000
O     4.252000000    -2.139000000     1.195000000
H     3.937000000    -2.116000000     2.099000000
H     4.117000000    -1.249000000     0.871000000
O    -0.838000000    -2.792000000    -4.948000000
H    -0.529000000    -2.234000000    -5.661000000
H    -1.569000000    -2.307000000    -4.565000000
O    -3.942000000     4.205000000     5.210000000
H    -3.258000000     4.222000000     5.880000000
H    -3.793000000     3.386000000     4.736000000
O     3.603000000     4.132000000     0.977000000
H     3.844000000     4.566000000     0.158000000
H     3.134000000     3.344000000     0.702000000
O     6.451000000    -4.051000000     0.859000000
H     5.707000000    -3.451000000     0.799000000
H     7.161000000    -3.598000000     0.403000000
O     4.378000000    -1.322000000    -2.146000000
H     4.032000000    -1.257000000    -3.036000000
H     5.290000000    -1.590000000    -2.262000000
O    -4.755000000     0.283000000     2.378000000
H    -5.524000000    -0.226000000     2.635000000
H    -4.371000000    -0.214000000     1.656000000
O     1.599000000    -3.925000000     3.347000000
H     1.889000000    -4.309000000     4.175000000
H     2.160000000    -3.158000000     3.229000000
O    -2.864000000    -5.358000000    -2.739000000
H    -3.622000000    -5.318000000    -2.157000000
H    -2.765000000    -4.464000000    -3.066000000
O    -4.123000000     3.905000000    -3.995000000
H    -4.185000000     4.860000000    -3.976000000
H    -5.017000000     3.611000000    -4.170000000
O    -4.166000000    -0.492000000    -0.317000000
H    -3.757000000     0.325000000    -0.603000000
H    -4.364000000    -0.958000000    -1.129000000
