161
-3010.22234
C    -1.474000000     0.262000000     0.392000000
H    -2.492000000     0.561000000     0.631000000
C    -0.966000000     0.417000000    -0.931000000
H    -1.538000000     0.812000000    -1.767000000
C     0.380000000     0.078000000    -1.176000000
C     1.152000000     0.296000000    -2.476000000
H     0.435000000     0.342000000    -3.298000000
H     1.731000000     1.217000000    -2.390000000
H     1.815000000    -0.539000000    -2.714000000
C     1.173000000    -0.432000000    -0.166000000
H     2.238000000    -0.641000000    -0.219000000
C     0.673000000    -0.483000000     1.134000000
H     1.325000000    -0.582000000     1.998000000
C    -0.622000000    -0.116000000     1.416000000
C    -1.139000000    -0.274000000     2.838000000
O    -0.354000000    -0.688000000     3.665000000
O    -2.332000000    -0.225000000     3.064000000
O     0.227000000     0.870000000     7.037000000
H     0.754000000     1.226000000     7.752000000
H     0.311000000     1.514000000     6.333000000
O     3.603000000     3.999000000     1.976000000
H     3.044000000     4.662000000     2.381000000
H     2.999000000     3.449000000     1.477000000
O    -1.260000000     2.722000000    -5.416000000
H    -1.562000000     1.875000000    -5.088000000
H    -1.717000000     3.365000000    -4.874000000
O    -5.543000000    -0.642000000    -3.703000000
H    -5.834000000     0.253000000    -3.528000000
H    -6.143000000    -0.961000000    -4.378000000
O    -1.135000000    -4.563000000     1.819000000
H    -0.913000000    -5.445000000     1.522000000
H    -0.297000000    -4.177000000     2.071000000
O    -3.574000000     2.052000000     3.403000000
H    -3.703000000     2.343000000     2.500000000
H    -2.988000000     1.299000000     3.331000000
O    -4.610000000    -0.614000000     1.522000000
H    -3.732000000    -0.722000000     1.885000000
H    -4.470000000    -0.517000000     0.580000000
O     6.984000000    -0.139000000     1.751000000
H     6.063000000    -0.324000000     1.937000000
H     7.367000000    -0.996000000     1.564000000
O    -4.577000000     1.817000000    -0.900000000
H    -4.250000000     0.946000000    -1.124000000
H    -5.159000000     2.048000000    -1.624000000
O    -1.857000000    -3.513000000     7.462000000
H    -1.114000000    -2.926000000     7.322000000
H    -2.603000000    -3.051000000     7.082000000
O     0.304000000    -1.880000000     6.702000000
H     0.439000000    -0.934000000     6.666000000
H    -0.134000000    -2.091000000     5.877000000
O    -2.028000000    -2.392000000    -3.309000000
H    -1.369000000    -2.415000000    -4.002000000
H    -1.565000000    -2.035000000    -2.550000000
O     3.045000000    -4.864000000    -0.121000000
H     3.532000000    -5.685000000    -0.190000000
H     3.260000000    -4.390000000    -0.924000000
O     2.405000000     1.341000000     4.697000000
H     3.336000000     1.503000000     4.846000000
H     1.995000000     2.201000000     4.786000000
O    -6.957000000     1.053000000     1.437000000
H    -6.133000000     0.573000000     1.521000000
H    -7.438000000     0.846000000     2.238000000
O    -2.822000000     0.430000000    -7.657000000
H    -3.658000000     0.000000000    -7.842000000
H    -2.619000000     0.180000000    -6.755000000
O    -1.567000000     3.641000000     4.832000000
H    -1.871000000     2.966000000     4.226000000
H    -2.324000000     4.215000000     4.951000000
O     4.916000000    -2.616000000     0.931000000
H     4.742000000    -2.432000000     1.854000000
H     4.502000000    -3.464000000     0.773000000
O    -0.026000000     1.006000000    -7.984000000
H    -0.978000000     1.004000000    -7.883000000
H     0.238000000     1.896000000    -7.747000000
O     2.214000000     2.706000000     0.195000000
H     1.637000000     2.096000000    -0.263000000
H     3.079000000     2.549000000    -0.183000000
O     1.748000000    -3.854000000     2.926000000
H     2.070000000    -4.713000000     3.198000000
H     2.079000000    -3.745000000     2.035000000
O     1.019000000     3.376000000    -7.093000000
H     1.034000000     4.333000000    -7.081000000
H     0.249000000     3.142000000    -6.574000000
O    -2.096000000     0.051000000     5.791000000
H    -1.259000000     0.216000000     6.227000000
H    -1.916000000     0.202000000     4.863000000
O    -1.188000000    -2.896000000    -0.571000000
H    -1.353000000    -3.576000000     0.082000000
H    -0.481000000    -2.370000000    -0.195000000
O     3.199000000    -2.752000000    -5.720000000
H     3.995000000    -2.259000000    -5.918000000
H     3.413000000    -3.656000000    -5.951000000
O    -0.508000000    -3.287000000     4.528000000
H     0.232000000    -3.459000000     3.945000000
H    -0.910000000    -2.493000000     4.177000000
O    -4.757000000     3.614000000     1.270000000
H    -3.997000000     4.050000000     0.886000000
H    -4.908000000     2.855000000     0.707000000
O     2.428000000    -1.179000000     4.151000000
H     2.274000000    -0.280000000     4.442000000
H     1.553000000    -1.526000000     3.975000000
O     3.418000000    -4.742000000    -3.726000000
H     4.164000000    -5.185000000    -4.131000000
H     3.600000000    -3.810000000    -3.843000000
O     4.152000000     0.682000000    -4.070000000
H     3.250000000     0.821000000    -4.359000000
H     4.478000000    -0.021000000    -4.633000000
O    -1.512000000     3.216000000     1.256000000
H    -0.924000000     2.538000000     0.924000000
H    -1.782000000     3.702000000     0.477000000
O     2.868000000    -3.190000000     6.356000000
H     3.359000000    -2.884000000     5.593000000
H     1.990000000    -2.829000000     6.236000000
O    -2.947000000    -0.303000000    -5.047000000
H    -2.413000000    -0.902000000    -4.526000000
H    -3.791000000    -0.280000000    -4.594000000
O    -4.215000000    -1.944000000     6.166000000
H    -3.779000000    -1.095000000     6.097000000
H    -4.925000000    -1.902000000     5.525000000
O     2.352000000     1.210000000    -6.202000000
H     2.245000000     2.110000000    -6.509000000
H     1.552000000     0.765000000    -6.480000000
O    -6.564000000    -2.338000000     4.525000000
H    -6.430000000    -2.312000000     3.578000000
H    -7.254000000    -2.989000000     4.653000000
O     4.919000000    -1.483000000     3.257000000
H     5.303000000    -2.066000000     3.913000000
H     3.996000000    -1.421000000     3.502000000
O    -4.229000000    -0.954000000    -1.388000000
H    -4.765000000    -0.840000000    -2.173000000
H    -3.565000000    -1.594000000    -1.643000000
O     6.216000000     2.510000000    -2.415000000
H     5.904000000     2.682000000    -3.303000000
H     6.820000000     1.774000000    -2.511000000
O    -6.463000000    -2.525000000     1.560000000
H    -5.656000000    -2.012000000     1.606000000
H    -6.227000000    -3.294000000     1.041000000
O    -3.216000000     3.917000000    -3.782000000
H    -3.018000000     4.813000000    -4.055000000
H    -4.171000000     3.861000000    -3.820000000
O     0.530000000    -2.298000000    -5.145000000
H     0.420000000    -2.277000000    -6.095000000
H     1.446000000    -2.544000000    -5.015000000
O     6.314000000    -2.587000000    -2.138000000
H     5.455000000    -2.221000000    -1.925000000
H     6.423000000    -3.314000000    -1.526000000
O    -3.681000000    -4.053000000     2.917000000
H    -3.630000000    -3.835000000     3.848000000
H    -2.780000000    -3.974000000     2.603000000
O    -6.042000000     3.577000000     3.655000000
H    -5.712000000     3.740000000     2.772000000
H    -5.470000000     2.893000000     4.003000000
O    -2.507000000     4.318000000    -1.064000000
H    -2.766000000     3.521000000    -1.527000000
H    -3.066000000     5.002000000    -1.433000000
O     1.345000000     5.176000000    -0.781000000
H     0.700000000     5.358000000    -0.097000000
H     1.502000000     4.234000000    -0.716000000
O     4.873000000     1.745000000    -0.279000000
H     5.363000000     1.985000000    -1.065000000
H     4.540000000     0.866000000    -0.464000000
