17
-91.40710
C    -1.329000000    -0.625000000     0.058000000
H    -2.323000000    -1.055000000    -0.037000000
C    -1.063000000     0.596000000    -0.520000000
H    -1.826000000     0.994000000    -1.185000000
C     0.212000000     1.096000000    -0.513000000
C     0.555000000     2.322000000    -1.268000000
H     1.575000000     2.601000000    -0.996000000
H     0.625000000     2.070000000    -2.329000000
H    -0.128000000     3.162000000    -1.127000000
C     1.224000000     0.501000000     0.268000000
H     2.202000000     0.959000000     0.392000000
C     0.934000000    -0.744000000     0.800000000
H     1.788000000    -1.284000000     1.201000000
C    -0.340000000    -1.332000000     0.770000000
C    -0.624000000    -2.720000000     1.288000000
O     0.266000000    -3.443000000     1.680000000
O    -1.744000000    -3.103000000     1.519000000
