17
-88.55983
C    -0.610000000    -1.296000000    -0.471000000
H    -0.719000000    -2.318000000    -0.826000000
C     0.001000000    -0.357000000    -1.260000000
H     0.321000000    -0.551000000    -2.281000000
C     0.498000000     0.799000000    -0.729000000
C     1.132000000     1.874000000    -1.614000000
H     1.310000000     1.558000000    -2.644000000
H     0.463000000     2.728000000    -1.741000000
H     2.115000000     2.147000000    -1.225000000
C     0.328000000     1.041000000     0.637000000
H     0.622000000     2.010000000     1.033000000
C    -0.248000000     0.113000000     1.448000000
H    -0.376000000     0.424000000     2.481000000
C    -0.732000000    -1.028000000     0.906000000
C    -1.277000000    -2.086000000     1.863000000
O    -0.953000000    -2.029000000     3.005000000
O    -1.868000000    -3.022000000     1.416000000
