17
-96.94456
C    -1.326000000    -0.458000000    -0.457000000
H    -2.190000000    -0.878000000    -0.965000000
C    -0.279000000    -0.013000000    -1.258000000
H    -0.459000000     0.021000000    -2.330000000
C     0.979000000     0.240000000    -0.741000000
C     2.128000000     0.776000000    -1.484000000
H     2.719000000     1.506000000    -0.928000000
H     2.787000000    -0.006000000    -1.867000000
H     1.759000000     1.309000000    -2.363000000
C     1.114000000     0.135000000     0.664000000
H     2.069000000     0.252000000     1.169000000
C     0.017000000    -0.155000000     1.463000000
H     0.286000000    -0.177000000     2.516000000
C    -1.259000000    -0.401000000     0.901000000
C    -2.446000000    -0.670000000     1.682000000
O    -2.437000000    -0.306000000     2.863000000
O    -3.454000000    -1.167000000     1.136000000
