17
-84.55131
C    -0.859000000    -1.152000000    -0.385000000
H    -1.436000000    -1.982000000    -0.784000000
C    -0.070000000    -0.438000000    -1.292000000
H    -0.091000000    -0.676000000    -2.352000000
C     0.667000000     0.687000000    -0.787000000
C     1.681000000     1.426000000    -1.694000000
H     2.551000000     0.786000000    -1.855000000
H     1.438000000     1.625000000    -2.740000000
H     2.052000000     2.344000000    -1.235000000
C     0.706000000     0.942000000     0.657000000
H     1.266000000     1.820000000     0.968000000
C    -0.090000000     0.158000000     1.450000000
H    -0.191000000     0.443000000     2.495000000
C    -0.961000000    -0.798000000     1.000000000
C    -1.947000000    -1.524000000     1.917000000
O    -2.473000000    -0.991000000     2.878000000
O    -2.235000000    -2.672000000     1.767000000
