17
-95.54888
C    -1.547000000    -0.292000000    -0.068000000
H    -2.628000000    -0.368000000    -0.159000000
C    -0.893000000     0.858000000    -0.505000000
H    -1.481000000     1.620000000    -1.010000000
C     0.493000000     0.994000000    -0.482000000
C     1.182000000     2.296000000    -0.923000000
H     1.514000000     2.252000000    -1.962000000
H     0.685000000     3.254000000    -0.756000000
H     2.129000000     2.436000000    -0.397000000
C     1.242000000     0.035000000     0.172000000
H     2.317000000     0.122000000     0.306000000
C     0.656000000    -1.122000000     0.594000000
H     1.295000000    -1.875000000     1.048000000
C    -0.763000000    -1.316000000     0.515000000
C    -1.285000000    -2.628000000     1.024000000
O    -0.469000000    -3.494000000     1.330000000
O    -2.446000000    -2.777000000     1.275000000
