17
-90.99821
C    -0.899000000    -1.134000000    -0.350000000
H    -1.708000000    -1.745000000    -0.742000000
C    -0.316000000    -0.262000000    -1.292000000
H    -0.610000000    -0.153000000    -2.333000000
C     0.576000000     0.659000000    -0.813000000
C     1.176000000     1.666000000    -1.800000000
H     2.247000000     1.452000000    -1.800000000
H     0.837000000     1.457000000    -2.817000000
H     1.095000000     2.702000000    -1.464000000
C     1.004000000     0.661000000     0.511000000
H     1.688000000     1.421000000     0.879000000
C     0.422000000    -0.194000000     1.407000000
H     0.557000000    -0.028000000     2.473000000
C    -0.607000000    -1.093000000     1.022000000
C    -1.523000000    -1.686000000     2.116000000
O    -1.712000000    -1.095000000     3.153000000
O    -2.219000000    -2.624000000     1.842000000
