17
-96.41144
C    -1.355000000    -0.766000000    -0.113000000
H    -2.286000000    -1.294000000    -0.304000000
C    -0.874000000     0.215000000    -1.030000000
H    -1.327000000     0.542000000    -1.962000000
C     0.420000000     0.839000000    -0.808000000
C     0.866000000     1.912000000    -1.767000000
H     0.164000000     2.745000000    -1.684000000
H     1.804000000     2.303000000    -1.368000000
H     1.022000000     1.645000000    -2.815000000
C     1.144000000     0.491000000     0.325000000
H     2.065000000     1.036000000     0.515000000
C     0.736000000    -0.479000000     1.182000000
H     1.243000000    -0.723000000     2.112000000
C    -0.551000000    -1.101000000     0.988000000
C    -0.948000000    -2.146000000     1.993000000
O    -0.064000000    -2.614000000     2.746000000
O    -2.054000000    -2.613000000     1.986000000
