17
-87.44688
C    -0.297000000     0.065000000    -1.452000000
H    -0.506000000     0.387000000    -2.469000000
C     0.898000000     0.450000000    -0.852000000
H     1.617000000     1.066000000    -1.387000000
C     1.056000000     0.212000000     0.505000000
C     2.322000000     0.628000000     1.196000000
H     3.156000000     0.311000000     0.567000000
H     2.307000000     1.672000000     1.514000000
H     2.505000000     0.059000000     2.110000000
C     0.137000000    -0.463000000     1.290000000
H     0.220000000    -0.685000000     2.351000000
C    -1.064000000    -0.729000000     0.674000000
H    -1.883000000    -1.187000000     1.223000000
C    -1.324000000    -0.429000000    -0.676000000
C    -2.696000000    -0.535000000    -1.320000000
O    -3.716000000    -0.630000000    -0.760000000
O    -2.737000000    -0.195000000    -2.512000000
