17
-100.87834
C     0.628000000    -0.659000000     1.186000000
H     0.886000000    -1.102000000     2.144000000
C    -0.178000000     0.491000000     1.244000000
H    -0.387000000     0.974000000     2.195000000
C    -0.671000000     1.069000000     0.068000000
C    -1.495000000     2.313000000    -0.001000000
H    -2.171000000     2.287000000    -0.858000000
H    -2.009000000     2.472000000     0.949000000
H    -0.816000000     3.154000000    -0.155000000
C    -0.524000000     0.296000000    -1.089000000
H    -1.072000000     0.596000000    -1.978000000
C     0.356000000    -0.810000000    -1.203000000
H     0.465000000    -1.220000000    -2.204000000
C     0.865000000    -1.329000000    -0.031000000
C     1.787000000    -2.572000000    -0.089000000
O     2.246000000    -2.953000000    -1.184000000
O     2.085000000    -3.008000000     1.003000000
