17
-97.77384
C    -0.868000000    -0.585000000    -1.030000000
H    -1.604000000    -0.785000000    -1.804000000
C     0.115000000     0.345000000    -1.267000000
H     0.165000000     0.660000000    -2.306000000
C     0.904000000     0.828000000    -0.225000000
C     1.945000000     1.960000000    -0.405000000
H     2.763000000     1.708000000    -1.083000000
H     1.473000000     2.859000000    -0.807000000
H     2.385000000     2.121000000     0.582000000
C     0.617000000     0.372000000     1.080000000
H     1.160000000     0.781000000     1.928000000
C    -0.325000000    -0.640000000     1.352000000
H    -0.503000000    -1.019000000     2.355000000
C    -1.092000000    -1.117000000     0.245000000
C    -2.127000000    -2.191000000     0.427000000
O    -2.282000000    -2.699000000     1.509000000
O    -2.723000000    -2.593000000    -0.554000000
