17
-94.49428
C    -1.025000000    -0.346000000    -1.036000000
H    -1.701000000    -0.539000000    -1.866000000
C     0.294000000     0.138000000    -1.289000000
H     0.745000000     0.313000000    -2.262000000
C     1.197000000     0.303000000    -0.268000000
C     2.498000000     0.986000000    -0.566000000
H     3.111000000     0.953000000     0.337000000
H     2.933000000     0.481000000    -1.431000000
H     2.336000000     2.004000000    -0.927000000
C     0.764000000     0.059000000     1.007000000
H     1.462000000     0.215000000     1.826000000
C    -0.597000000    -0.315000000     1.308000000
H    -0.890000000    -0.417000000     2.350000000
C    -1.449000000    -0.618000000     0.281000000
C    -2.860000000    -0.969000000     0.714000000
O    -3.128000000    -0.828000000     1.889000000
O    -3.691000000    -1.412000000    -0.072000000
