17
-90.05910
C    -0.923000000    -0.784000000    -0.855000000
H    -1.411000000    -1.459000000    -1.554000000
C     0.385000000    -0.318000000    -1.135000000
H     0.698000000    -0.510000000    -2.159000000
C     1.128000000     0.353000000    -0.227000000
C     2.534000000     0.667000000    -0.753000000
H     2.590000000     1.238000000    -1.682000000
H     3.094000000     1.159000000     0.045000000
H     2.924000000    -0.312000000    -1.042000000
C     0.641000000     0.732000000     0.958000000
H     1.242000000     1.403000000     1.567000000
C    -0.635000000     0.333000000     1.248000000
H    -1.169000000     0.730000000     2.108000000
C    -1.442000000    -0.483000000     0.414000000
C    -2.817000000    -0.862000000     0.900000000
O    -3.245000000    -0.372000000     1.949000000
O    -3.593000000    -1.510000000     0.210000000
