17
-100.68119
C    -0.319000000    -0.443000000    -1.339000000
H    -0.503000000    -0.650000000    -2.390000000
C     0.821000000     0.184000000    -0.925000000
H     1.541000000     0.513000000    -1.670000000
C     0.976000000     0.680000000     0.369000000
C     2.210000000     1.379000000     0.686000000
H     2.196000000     2.323000000     0.135000000
H     2.301000000     1.561000000     1.758000000
H     3.076000000     0.791000000     0.375000000
C     0.019000000     0.355000000     1.288000000
H     0.208000000     0.546000000     2.341000000
C    -1.107000000    -0.390000000     0.927000000
H    -1.765000000    -0.740000000     1.718000000
C    -1.314000000    -0.729000000    -0.422000000
C    -2.506000000    -1.558000000    -0.869000000
O    -3.386000000    -1.750000000    -0.015000000
O    -2.455000000    -2.075000000    -1.974000000
