17
-93.84009
C     0.658000000     0.799000000    -1.072000000
H     1.163000000     1.431000000    -1.798000000
C     1.270000000     0.421000000     0.090000000
H     2.305000000     0.707000000     0.259000000
C     0.590000000    -0.266000000     1.079000000
C     1.237000000    -0.955000000     2.251000000
H     0.677000000    -1.742000000     2.761000000
H     2.105000000    -1.444000000     1.804000000
H     1.578000000    -0.267000000     3.028000000
C    -0.744000000    -0.548000000     0.823000000
H    -1.305000000    -1.202000000     1.487000000
C    -1.398000000    -0.049000000    -0.288000000
H    -2.421000000    -0.408000000    -0.374000000
C    -0.713000000     0.624000000    -1.260000000
C    -1.484000000     0.931000000    -2.564000000
O    -2.655000000     0.586000000    -2.737000000
O    -0.856000000     1.382000000    -3.491000000
