17
-91.98491
C     0.587000000     1.198000000    -0.701000000
H     1.277000000     1.864000000    -1.214000000
C     1.243000000     0.406000000     0.219000000
H     2.291000000     0.638000000     0.389000000
C     0.625000000    -0.609000000     0.837000000
C     1.303000000    -1.659000000     1.698000000
H     0.638000000    -1.952000000     2.513000000
H     1.524000000    -2.599000000     1.187000000
H     2.274000000    -1.341000000     2.082000000
C    -0.735000000    -0.923000000     0.571000000
H    -1.292000000    -1.707000000     1.076000000
C    -1.379000000    -0.125000000    -0.336000000
H    -2.423000000    -0.238000000    -0.615000000
C    -0.748000000     0.981000000    -0.969000000
C    -1.553000000     1.814000000    -1.961000000
O    -2.741000000     1.690000000    -2.147000000
O    -0.897000000     2.555000000    -2.625000000
