17
-89.70016
C     0.389000000     0.889000000    -1.104000000
H     0.667000000     1.678000000    -1.797000000
C     1.231000000     0.546000000    -0.016000000
H     2.222000000     0.964000000     0.143000000
C     0.683000000    -0.385000000     0.922000000
C     1.516000000    -0.837000000     2.130000000
H     1.067000000    -1.076000000     3.096000000
H     2.050000000    -1.705000000     1.739000000
H     2.304000000    -0.129000000     2.395000000
C    -0.651000000    -0.863000000     0.817000000
H    -0.960000000    -1.491000000     1.648000000
C    -1.443000000    -0.402000000    -0.236000000
H    -2.477000000    -0.731000000    -0.190000000
C    -0.899000000     0.444000000    -1.224000000
C    -1.699000000     0.944000000    -2.386000000
O    -2.821000000     0.556000000    -2.655000000
O    -1.172000000     1.604000000    -3.280000000
