17
-96.57941
C     0.509000000     0.757000000    -1.195000000
H     1.057000000     1.228000000    -2.007000000
C     1.279000000     0.296000000    -0.099000000
H     2.361000000     0.404000000    -0.084000000
C     0.667000000    -0.223000000     1.016000000
C     1.463000000    -0.734000000     2.180000000
H     0.910000000    -1.568000000     2.617000000
H     2.425000000    -1.187000000     1.933000000
H     1.687000000     0.049000000     2.908000000
C    -0.721000000    -0.513000000     0.982000000
H    -1.252000000    -1.026000000     1.780000000
C    -1.489000000    -0.171000000    -0.108000000
H    -2.573000000    -0.243000000    -0.089000000
C    -0.879000000     0.479000000    -1.244000000
C    -1.625000000     0.761000000    -2.551000000
O    -2.674000000     0.222000000    -2.610000000
O    -1.137000000     1.461000000    -3.431000000
