17
-88.43566
C    -1.000000000     0.846000000    -0.507000000
H    -1.675000000     1.680000000    -0.680000000
C     0.227000000     1.283000000    -0.013000000
H     0.428000000     2.351000000    -0.035000000
C     1.115000000     0.352000000     0.385000000
C     2.448000000     0.794000000     1.008000000
H     2.365000000     1.880000000     1.089000000
H     2.609000000     0.445000000     2.030000000
H     3.214000000     0.485000000     0.294000000
C     0.781000000    -0.994000000     0.291000000
H     1.468000000    -1.755000000     0.651000000
C    -0.499000000    -1.449000000    -0.221000000
H    -0.703000000    -2.515000000    -0.171000000
C    -1.375000000    -0.459000000    -0.601000000
C    -2.759000000    -0.845000000    -1.040000000
O    -3.213000000    -1.950000000    -0.747000000
O    -3.427000000    -0.156000000    -1.739000000
