17
-93.60482
C    -0.316000000     1.301000000    -0.458000000
H    -0.398000000     2.287000000    -0.907000000
C     0.752000000     1.003000000     0.330000000
H     1.417000000     1.827000000     0.578000000
C     0.978000000    -0.294000000     0.687000000
C     2.155000000    -0.591000000     1.537000000
H     3.016000000    -0.347000000     0.911000000
H     2.199000000     0.170000000     2.319000000
H     2.155000000    -1.634000000     1.861000000
C     0.067000000    -1.307000000     0.422000000
H     0.194000000    -2.341000000     0.731000000
C    -1.133000000    -0.939000000    -0.267000000
H    -1.864000000    -1.704000000    -0.516000000
C    -1.300000000     0.339000000    -0.832000000
C    -2.372000000     0.655000000    -1.821000000
O    -3.307000000    -0.085000000    -2.053000000
O    -2.248000000     1.654000000    -2.517000000
