17
-86.98852
C     0.475000000     1.003000000    -0.960000000
H     0.792000000     1.868000000    -1.537000000
C     0.883000000     0.828000000     0.347000000
H     1.564000000     1.558000000     0.779000000
C     0.510000000    -0.253000000     1.124000000
C     1.095000000    -0.454000000     2.561000000
H     0.719000000    -1.310000000     3.125000000
H     2.154000000    -0.618000000     2.352000000
H     0.832000000     0.484000000     3.055000000
C    -0.484000000    -1.108000000     0.558000000
H    -0.891000000    -1.856000000     1.233000000
C    -0.982000000    -0.881000000    -0.728000000
H    -1.865000000    -1.415000000    -1.071000000
C    -0.518000000     0.151000000    -1.483000000
C    -1.244000000     0.578000000    -2.732000000
O    -2.386000000     0.239000000    -3.053000000
O    -0.659000000     1.193000000    -3.573000000
