17
-96.59309
C     0.488000000     0.816000000    -1.207000000
H     0.889000000     1.372000000    -2.051000000
C     1.259000000     0.541000000    -0.056000000
H     2.305000000     0.834000000    -0.039000000
C     0.714000000    -0.168000000     1.030000000
C     1.554000000    -0.542000000     2.255000000
H     1.204000000    -1.549000000     2.492000000
H     2.614000000    -0.485000000     1.999000000
H     1.367000000     0.054000000     3.151000000
C    -0.570000000    -0.678000000     0.884000000
H    -1.036000000    -1.287000000     1.654000000
C    -1.344000000    -0.457000000    -0.237000000
H    -2.328000000    -0.916000000    -0.293000000
C    -0.868000000     0.323000000    -1.313000000
C    -1.824000000     0.705000000    -2.435000000
O    -2.960000000     0.259000000    -2.336000000
O    -1.468000000     1.186000000    -3.495000000
