17
-94.63261
C     1.060000000     0.023000000    -1.087000000
H     1.776000000    -0.113000000    -1.893000000
C     0.691000000    -1.067000000    -0.264000000
H     1.072000000    -2.003000000    -0.664000000
C    -0.238000000    -0.996000000     0.767000000
C    -0.598000000    -2.155000000     1.533000000
H     0.220000000    -2.457000000     2.192000000
H    -1.421000000    -1.878000000     2.196000000
H    -0.986000000    -2.998000000     0.957000000
C    -0.843000000     0.227000000     1.000000000
H    -1.503000000     0.408000000     1.845000000
C    -0.528000000     1.373000000     0.191000000
H    -0.976000000     2.350000000     0.350000000
C     0.377000000     1.232000000    -0.839000000
C     0.633000000     2.369000000    -1.815000000
O     0.200000000     3.488000000    -1.533000000
O     1.063000000     2.199000000    -2.942000000
