17
-73.41869
C     0.811000000     0.266000000    -1.172000000
H     1.308000000     0.371000000    -2.134000000
C     0.689000000    -0.979000000    -0.597000000
H     1.176000000    -1.867000000    -0.993000000
C    -0.194000000    -1.146000000     0.471000000
C    -0.501000000    -2.447000000     1.127000000
H    -0.427000000    -2.216000000     2.192000000
H    -1.507000000    -2.803000000     0.897000000
H     0.300000000    -3.149000000     0.886000000
C    -0.886000000    -0.025000000     0.954000000
H    -1.646000000    -0.110000000     1.726000000
C    -0.596000000     1.204000000     0.459000000
H    -1.084000000     2.073000000     0.894000000
C     0.306000000     1.410000000    -0.589000000
C     0.599000000     2.744000000    -1.270000000
O     0.048000000     3.679000000    -0.928000000
O     1.609000000     2.993000000    -1.923000000
