17
-88.41586
C     1.089000000     0.066000000    -1.009000000
H     1.959000000    -0.114000000    -1.636000000
C     0.627000000    -1.058000000    -0.245000000
H     1.273000000    -1.929000000    -0.328000000
C    -0.451000000    -1.011000000     0.677000000
C    -0.705000000    -2.243000000     1.579000000
H    -0.249000000    -2.205000000     2.570000000
H    -1.787000000    -2.355000000     1.678000000
H    -0.291000000    -3.158000000     1.149000000
C    -1.086000000     0.213000000     0.692000000
H    -1.823000000     0.361000000     1.477000000
C    -0.722000000     1.310000000    -0.126000000
H    -1.256000000     2.256000000    -0.077000000
C     0.438000000     1.283000000    -0.884000000
C     0.858000000     2.483000000    -1.658000000
O     0.301000000     3.546000000    -1.462000000
O     1.829000000     2.559000000    -2.398000000
