17
-83.50687
C     0.646000000     1.125000000    -0.446000000
H     1.306000000     1.974000000    -0.601000000
C     1.267000000    -0.097000000    -0.250000000
H     2.336000000    -0.152000000    -0.438000000
C     0.515000000    -1.138000000     0.133000000
C     1.169000000    -2.415000000     0.432000000
H     2.034000000    -2.394000000     1.098000000
H     0.453000000    -3.120000000     0.861000000
H     1.528000000    -2.717000000    -0.555000000
C    -0.858000000    -0.964000000     0.410000000
H    -1.411000000    -1.771000000     0.884000000
C    -1.495000000     0.325000000     0.209000000
H    -2.527000000     0.486000000     0.511000000
C    -0.769000000     1.331000000    -0.326000000
C    -1.280000000     2.774000000    -0.603000000
O    -2.312000000     3.106000000    -0.172000000
O    -0.597000000     3.641000000    -1.154000000
