17
-103.22236
C    -0.996000000    -0.507000000    -0.941000000
H    -1.754000000    -0.918000000    -1.602000000
C    -0.881000000    -0.886000000     0.415000000
H    -1.589000000    -1.636000000     0.759000000
C     0.088000000    -0.312000000     1.193000000
C     0.252000000    -0.762000000     2.633000000
H    -0.617000000    -1.332000000     2.968000000
H     1.177000000    -1.343000000     2.658000000
H     0.353000000     0.141000000     3.239000000
C     0.894000000     0.680000000     0.667000000
H     1.548000000     1.188000000     1.372000000
C     0.814000000     1.074000000    -0.673000000
H     1.398000000     1.899000000    -1.071000000
C    -0.093000000     0.378000000    -1.529000000
C    -0.164000000     0.707000000    -3.009000000
O     0.450000000     1.668000000    -3.424000000
O    -0.887000000    -0.038000000    -3.651000000
