17
-85.89566
C    -0.638000000    -1.103000000    -0.688000000
H    -1.145000000    -1.943000000    -1.155000000
C    -0.873000000    -0.681000000     0.601000000
H    -1.648000000    -1.114000000     1.230000000
C    -0.222000000     0.386000000     1.199000000
C    -0.696000000     0.892000000     2.555000000
H    -1.614000000     1.430000000     2.310000000
H    -0.961000000     0.011000000     3.143000000
H     0.071000000     1.481000000     3.061000000
C     0.715000000     1.031000000     0.433000000
H     1.178000000     1.872000000     0.943000000
C     1.058000000     0.553000000    -0.849000000
H     1.925000000     0.962000000    -1.362000000
C     0.414000000    -0.543000000    -1.463000000
C     0.742000000    -1.011000000    -2.894000000
O     1.617000000    -0.452000000    -3.470000000
O     0.083000000    -1.765000000    -3.587000000
