17
-83.28490
C    -0.091000000    -0.612000000     1.317000000
H    -0.306000000    -0.935000000     2.333000000
C    -0.626000000     0.612000000     0.984000000
H    -1.173000000     1.183000000     1.730000000
C    -0.466000000     1.152000000    -0.309000000
C    -1.182000000     2.307000000    -0.689000000
H    -2.231000000     2.087000000    -0.479000000
H    -0.805000000     3.040000000     0.027000000
H    -0.998000000     2.655000000    -1.708000000
C     0.374000000     0.440000000    -1.216000000
H     0.474000000     0.776000000    -2.245000000
C     0.913000000    -0.799000000    -0.893000000
H     1.390000000    -1.350000000    -1.699000000
C     0.708000000    -1.320000000     0.411000000
C     1.159000000    -2.697000000     0.718000000
O     1.878000000    -3.274000000    -0.047000000
O     0.974000000    -3.269000000     1.765000000
