17
-92.59801
C    -0.390000000    -0.321000000    -1.356000000
H    -0.763000000    -0.764000000    -2.276000000
C    -1.081000000    -0.695000000    -0.195000000
H    -1.993000000    -1.287000000    -0.190000000
C    -0.580000000    -0.260000000     1.048000000
C    -1.266000000    -0.829000000     2.261000000
H    -1.093000000    -1.907000000     2.256000000
H    -1.007000000    -0.176000000     3.096000000
H    -2.355000000    -0.757000000     2.220000000
C     0.544000000     0.495000000     1.148000000
H     0.970000000     0.824000000     2.092000000
C     1.243000000     0.845000000    -0.028000000
H     2.140000000     1.458000000    -0.020000000
C     0.776000000     0.452000000    -1.276000000
C     1.470000000     0.843000000    -2.588000000
O     2.435000000     1.505000000    -2.543000000
O     0.945000000     0.577000000    -3.648000000
