17
-97.21930
C     0.136000000    -1.423000000    -0.375000000
H     0.072000000    -2.501000000    -0.497000000
C    -1.038000000    -0.762000000    -0.021000000
H    -1.932000000    -1.369000000     0.096000000
C    -1.012000000     0.644000000     0.197000000
C    -2.273000000     1.302000000     0.704000000
H    -3.141000000     1.043000000     0.094000000
H    -2.515000000     1.086000000     1.746000000
H    -2.259000000     2.386000000     0.571000000
C     0.127000000     1.298000000     0.093000000
H     0.180000000     2.360000000     0.317000000
C     1.285000000     0.625000000    -0.218000000
H     2.189000000     1.225000000    -0.289000000
C     1.334000000    -0.737000000    -0.425000000
C     2.601000000    -1.530000000    -0.569000000
O     3.679000000    -0.903000000    -0.632000000
O     2.574000000    -2.748000000    -0.785000000
