17
-82.95260
C    -0.274000000    -0.959000000    -1.051000000
H    -0.608000000    -1.607000000    -1.858000000
C    -0.951000000    -0.969000000     0.167000000
H    -1.802000000    -1.640000000     0.243000000
C    -0.537000000     0.012000000     1.091000000
C    -1.201000000     0.090000000     2.442000000
H    -2.058000000     0.767000000     2.424000000
H    -1.497000000    -0.931000000     2.691000000
H    -0.604000000     0.505000000     3.257000000
C     0.518000000     0.841000000     0.845000000
H     0.821000000     1.602000000     1.560000000
C     1.213000000     0.824000000    -0.382000000
H     2.052000000     1.501000000    -0.521000000
C     0.756000000    -0.078000000    -1.403000000
C     1.222000000    -0.013000000    -2.810000000
O     2.046000000     0.814000000    -3.061000000
O     0.912000000    -0.758000000    -3.636000000
