17
-92.84052
C     0.447000000    -1.365000000    -0.253000000
H     0.566000000    -2.412000000    -0.522000000
C    -0.849000000    -0.985000000     0.128000000
H    -1.596000000    -1.752000000     0.320000000
C    -1.159000000     0.363000000     0.363000000
C    -2.547000000     0.710000000     0.862000000
H    -2.558000000     0.156000000     1.803000000
H    -2.621000000     1.793000000     0.988000000
H    -3.341000000     0.337000000     0.212000000
C    -0.173000000     1.334000000     0.201000000
H    -0.384000000     2.366000000     0.469000000
C     1.146000000     0.982000000    -0.263000000
H     1.974000000     1.684000000    -0.293000000
C     1.422000000    -0.390000000    -0.545000000
C     2.827000000    -0.823000000    -1.070000000
O     3.744000000    -0.026000000    -1.165000000
O     3.105000000    -1.978000000    -1.238000000
