17
-97.55811
C    -0.127000000    -1.412000000    -0.211000000
H    -0.432000000    -2.453000000    -0.273000000
C    -1.192000000    -0.534000000     0.036000000
H    -2.232000000    -0.819000000     0.172000000
C    -0.907000000     0.793000000     0.213000000
C    -2.048000000     1.777000000     0.498000000
H    -2.229000000     2.624000000    -0.167000000
H    -2.984000000     1.216000000     0.481000000
H    -1.900000000     2.203000000     1.493000000
C     0.417000000     1.196000000     0.154000000
H     0.642000000     2.226000000     0.421000000
C     1.445000000     0.320000000    -0.169000000
H     2.480000000     0.627000000    -0.303000000
C     1.195000000    -1.022000000    -0.246000000
C     2.321000000    -1.987000000    -0.595000000
O     3.520000000    -1.657000000    -0.499000000
O     2.037000000    -3.102000000    -1.008000000
