17
-94.12925
C    -0.466000000    -1.454000000     0.071000000
H    -0.842000000    -2.471000000     0.143000000
C    -0.969000000    -0.443000000    -0.779000000
H    -1.755000000    -0.758000000    -1.461000000
C    -0.457000000     0.854000000    -0.752000000
C    -0.853000000     1.848000000    -1.790000000
H    -0.425000000     1.596000000    -2.763000000
H    -1.944000000     1.864000000    -1.840000000
H    -0.515000000     2.844000000    -1.497000000
C     0.453000000     1.223000000     0.268000000
H     0.709000000     2.279000000     0.316000000
C     0.926000000     0.251000000     1.149000000
H     1.651000000     0.559000000     1.898000000
C     0.399000000    -1.086000000     1.045000000
C     1.119000000    -2.076000000     1.898000000
O     2.273000000    -1.820000000     2.209000000
O     0.691000000    -3.212000000     1.893000000
