17
-98.52624
C    -0.542000000    -1.392000000    -0.118000000
H    -0.960000000    -2.380000000    -0.291000000
C    -1.134000000    -0.205000000    -0.551000000
H    -1.975000000    -0.264000000    -1.236000000
C    -0.502000000     1.015000000    -0.487000000
C    -1.063000000     2.306000000    -1.173000000
H    -0.580000000     2.474000000    -2.137000000
H    -2.105000000     2.152000000    -1.461000000
H    -0.805000000     3.203000000    -0.607000000
C     0.581000000     1.144000000     0.407000000
H     1.073000000     2.101000000     0.566000000
C     1.118000000    -0.025000000     0.976000000
H     1.988000000    -0.047000000     1.628000000
C     0.592000000    -1.289000000     0.648000000
C     1.281000000    -2.593000000     1.114000000
O     1.986000000    -2.498000000     2.149000000
O     1.050000000    -3.700000000     0.567000000
