17
-98.13684
C    -0.689000000    -1.171000000    -0.523000000
H    -1.184000000    -1.959000000    -1.085000000
C    -0.966000000     0.134000000    -0.918000000
H    -1.579000000     0.272000000    -1.805000000
C    -0.243000000     1.160000000    -0.344000000
C    -0.385000000     2.530000000    -0.851000000
H    -1.041000000     3.069000000    -0.166000000
H     0.532000000     3.121000000    -0.901000000
H    -0.880000000     2.584000000    -1.823000000
C     0.746000000     0.881000000     0.617000000
H     1.283000000     1.728000000     1.036000000
C     0.903000000    -0.360000000     1.125000000
H     1.644000000    -0.619000000     1.877000000
C     0.224000000    -1.447000000     0.534000000
C     0.508000000    -2.907000000     0.937000000
O     1.503000000    -3.283000000     1.587000000
O    -0.378000000    -3.733000000     0.701000000
