17
-94.64390
C    -1.061000000    -0.959000000    -0.441000000
H    -1.844000000    -1.588000000    -0.855000000
C    -0.895000000     0.338000000    -0.814000000
H    -1.600000000     0.700000000    -1.558000000
C     0.061000000     1.203000000    -0.335000000
C     0.326000000     2.492000000    -0.971000000
H     0.184000000     2.422000000    -2.052000000
H    -0.440000000     3.207000000    -0.665000000
H     1.324000000     2.860000000    -0.721000000
C     0.921000000     0.676000000     0.624000000
H     1.724000000     1.321000000     0.971000000
C     0.768000000    -0.629000000     1.112000000
H     1.431000000    -1.023000000     1.878000000
C    -0.220000000    -1.433000000     0.506000000
C    -0.234000000    -2.825000000     0.974000000
O     0.226000000    -3.104000000     2.114000000
O    -0.664000000    -3.662000000     0.237000000
