17
-88.07643
C    -1.139000000    -0.878000000     0.343000000
H    -1.996000000    -1.545000000     0.394000000
C    -1.265000000     0.388000000    -0.249000000
H    -2.257000000     0.690000000    -0.574000000
C    -0.072000000     1.093000000    -0.470000000
C    -0.176000000     2.377000000    -1.327000000
H    -1.166000000     2.798000000    -1.139000000
H     0.516000000     3.191000000    -1.104000000
H    -0.140000000     2.059000000    -2.371000000
C     1.171000000     0.580000000    -0.129000000
H     2.099000000     1.060000000    -0.429000000
C     1.303000000    -0.649000000     0.453000000
H     2.265000000    -1.082000000     0.716000000
C     0.141000000    -1.303000000     0.762000000
C     0.198000000    -2.597000000     1.522000000
O     1.232000000    -2.888000000     2.082000000
O    -0.721000000    -3.299000000     1.513000000
