17
-92.16806
C    -0.749000000    -1.084000000    -0.606000000
H    -1.201000000    -1.943000000    -1.096000000
C    -0.391000000     0.108000000    -1.212000000
H    -0.633000000     0.213000000    -2.267000000
C     0.392000000     1.064000000    -0.574000000
C     0.623000000     2.402000000    -1.200000000
H    -0.286000000     2.949000000    -1.460000000
H     1.222000000     3.061000000    -0.568000000
H     1.239000000     2.240000000    -2.087000000
C     0.756000000     0.778000000     0.705000000
H     1.452000000     1.423000000     1.234000000
C     0.323000000    -0.351000000     1.375000000
H     0.516000000    -0.588000000     2.418000000
C    -0.434000000    -1.322000000     0.752000000
C    -0.822000000    -2.587000000     1.370000000
O    -0.254000000    -3.092000000     2.315000000
O    -1.752000000    -3.276000000     0.900000000
