17
-96.47606
C    -1.381000000    -0.490000000     0.091000000
H    -2.398000000    -0.863000000    -0.005000000
C    -0.929000000     0.609000000    -0.695000000
H    -1.584000000     1.146000000    -1.377000000
C     0.414000000     0.985000000    -0.633000000
C     0.992000000     2.071000000    -1.575000000
H     0.161000000     2.742000000    -1.802000000
H     1.745000000     2.645000000    -1.031000000
H     1.256000000     1.624000000    -2.536000000
C     1.239000000     0.269000000     0.195000000
H     2.305000000     0.481000000     0.230000000
C     0.823000000    -0.783000000     0.958000000
H     1.490000000    -1.314000000     1.632000000
C    -0.513000000    -1.190000000     0.888000000
C    -1.032000000    -2.356000000     1.642000000
O    -0.353000000    -2.873000000     2.484000000
O    -2.229000000    -2.702000000     1.527000000
