17
-95.42262
C    -0.458000000    -1.355000000     0.522000000
H    -0.906000000    -2.290000000     0.850000000
C    -1.252000000    -0.243000000     0.125000000
H    -2.329000000    -0.386000000     0.113000000
C    -0.706000000     0.931000000    -0.362000000
C    -1.631000000     2.080000000    -0.742000000
H    -2.542000000     2.088000000    -0.139000000
H    -1.085000000     3.018000000    -0.625000000
H    -1.915000000     1.960000000    -1.790000000
C     0.638000000     1.091000000    -0.456000000
H     1.083000000     1.968000000    -0.920000000
C     1.462000000     0.019000000    -0.099000000
H     2.539000000     0.075000000    -0.239000000
C     0.900000000    -1.166000000     0.489000000
C     1.827000000    -2.265000000     1.006000000
O     3.076000000    -2.251000000     0.921000000
O     1.305000000    -3.280000000     1.346000000
