17
-93.64570
C    -1.288000000    -0.567000000     0.417000000
H    -2.289000000    -0.868000000     0.715000000
C    -1.090000000     0.601000000    -0.307000000
H    -1.954000000     1.159000000    -0.659000000
C     0.208000000     1.138000000    -0.450000000
C     0.476000000     2.470000000    -1.076000000
H    -0.283000000     2.756000000    -1.808000000
H     0.639000000     3.278000000    -0.360000000
H     1.377000000     2.432000000    -1.691000000
C     1.294000000     0.281000000    -0.144000000
H     2.295000000     0.697000000    -0.222000000
C     1.068000000    -1.038000000     0.267000000
H     1.902000000    -1.640000000     0.619000000
C    -0.239000000    -1.419000000     0.601000000
C    -0.628000000    -2.724000000     1.207000000
O     0.279000000    -3.521000000     1.439000000
O    -1.761000000    -3.035000000     1.458000000
