17
-90.87650
C    -0.873000000    -1.159000000    -0.360000000
H    -1.649000000    -1.867000000    -0.638000000
C    -1.252000000     0.185000000    -0.231000000
H    -2.287000000     0.509000000    -0.303000000
C    -0.330000000     1.196000000     0.088000000
C    -0.797000000     2.646000000     0.199000000
H    -1.870000000     2.798000000     0.336000000
H    -0.313000000     3.205000000     1.002000000
H    -0.657000000     3.100000000    -0.785000000
C     1.028000000     0.858000000     0.295000000
H     1.804000000     1.600000000     0.462000000
C     1.387000000    -0.510000000     0.243000000
H     2.412000000    -0.858000000     0.140000000
C     0.447000000    -1.544000000    -0.064000000
C     0.835000000    -2.990000000    -0.120000000
O     2.004000000    -3.250000000     0.077000000
O     0.116000000    -3.919000000    -0.335000000
