17
-100.69354
C    -1.187000000     0.349000000    -0.907000000
H    -1.935000000     0.782000000    -1.567000000
C     0.203000000     0.644000000    -1.162000000
H     0.520000000     1.414000000    -1.861000000
C     1.191000000     0.242000000    -0.226000000
C     2.616000000     0.733000000    -0.395000000
H     2.613000000     1.740000000    -0.817000000
H     3.151000000     0.713000000     0.557000000
H     3.180000000     0.147000000    -1.123000000
C     0.825000000    -0.557000000     0.879000000
H     1.636000000    -0.841000000     1.545000000
C    -0.524000000    -0.905000000     1.077000000
H    -0.741000000    -1.550000000     1.924000000
C    -1.511000000    -0.415000000     0.240000000
C    -2.951000000    -0.748000000     0.534000000
O    -3.272000000    -1.394000000     1.543000000
O    -3.816000000    -0.353000000    -0.248000000
