17
-90.91714
C    -1.357000000     0.426000000    -0.546000000
H    -2.259000000     0.910000000    -0.912000000
C    -0.103000000     1.026000000    -0.826000000
H     0.028000000     1.947000000    -1.388000000
C     1.066000000     0.486000000    -0.305000000
C     2.443000000     1.182000000    -0.583000000
H     2.926000000     0.690000000    -1.429000000
H     2.397000000     2.233000000    -0.877000000
H     3.090000000     1.158000000     0.297000000
C     1.009000000    -0.627000000     0.532000000
H     1.866000000    -1.060000000     1.042000000
C    -0.228000000    -1.217000000     0.867000000
H    -0.219000000    -2.019000000     1.600000000
C    -1.447000000    -0.708000000     0.323000000
C    -2.701000000    -1.314000000     0.705000000
O    -2.809000000    -2.475000000     0.964000000
O    -3.704000000    -0.642000000     0.535000000
