17
-91.48439
C    -1.067000000     0.966000000     0.222000000
H    -1.810000000     1.758000000     0.270000000
C    -0.549000000     0.550000000    -0.993000000
H    -1.067000000     0.924000000    -1.872000000
C     0.438000000    -0.425000000    -1.105000000
C     1.079000000    -0.709000000    -2.489000000
H     1.925000000    -1.389000000    -2.371000000
H     0.269000000    -1.020000000    -3.153000000
H     1.472000000     0.271000000    -2.765000000
C     1.023000000    -0.815000000     0.052000000
H     1.750000000    -1.618000000    -0.039000000
C     0.478000000    -0.485000000     1.301000000
H     0.882000000    -1.000000000     2.169000000
C    -0.517000000     0.471000000     1.395000000
C    -1.218000000     0.816000000     2.760000000
O    -0.771000000     0.342000000     3.796000000
O    -2.316000000     1.360000000     2.820000000
