17
-92.44207
C    -1.331000000     0.461000000     0.248000000
H    -2.366000000     0.784000000     0.327000000
C    -0.804000000     0.341000000    -1.010000000
H    -1.394000000     0.570000000    -1.894000000
C     0.521000000    -0.232000000    -1.107000000
C     1.008000000    -0.551000000    -2.506000000
H     1.147000000    -1.622000000    -2.664000000
H     0.312000000    -0.205000000    -3.274000000
H     1.955000000    -0.030000000    -2.662000000
C     1.203000000    -0.449000000     0.045000000
H     2.254000000    -0.703000000    -0.070000000
C     0.747000000    -0.114000000     1.329000000
H     1.288000000    -0.269000000     2.259000000
C    -0.553000000     0.171000000     1.449000000
C    -1.163000000     0.501000000     2.811000000
O    -0.955000000    -0.162000000     3.797000000
O    -1.870000000     1.508000000     2.918000000
