17
-100.32704
C    -0.861000000     1.218000000     0.329000000
H    -1.648000000     1.941000000     0.530000000
C    -0.602000000     0.649000000    -0.937000000
H    -0.988000000     1.212000000    -1.783000000
C     0.260000000    -0.414000000    -1.121000000
C     0.561000000    -1.011000000    -2.490000000
H     0.699000000    -0.272000000    -3.282000000
H     1.384000000    -1.725000000    -2.411000000
H    -0.334000000    -1.568000000    -2.774000000
C     0.776000000    -1.059000000    -0.010000000
H     1.412000000    -1.932000000    -0.130000000
C     0.521000000    -0.541000000     1.260000000
H     0.857000000    -1.184000000     2.070000000
C    -0.258000000     0.642000000     1.411000000
C    -0.521000000     1.234000000     2.775000000
O     0.344000000     1.019000000     3.619000000
O    -1.602000000     1.798000000     2.948000000
