17
-91.63311
C    -0.628000000     1.363000000     0.142000000
H    -0.987000000     2.389000000     0.182000000
C    -0.056000000     0.800000000    -1.018000000
H    -0.169000000     1.383000000    -1.929000000
C     0.427000000    -0.481000000    -1.085000000
C     0.982000000    -1.062000000    -2.388000000
H     1.504000000    -0.237000000    -2.878000000
H     1.651000000    -1.896000000    -2.169000000
H     0.149000000    -1.441000000    -2.984000000
C     0.428000000    -1.246000000     0.063000000
H     0.533000000    -2.328000000     0.049000000
C    -0.026000000    -0.716000000     1.324000000
H    -0.075000000    -1.246000000     2.272000000
C    -0.521000000     0.602000000     1.321000000
C    -0.960000000     1.209000000     2.670000000
O    -0.346000000     0.932000000     3.641000000
O    -1.912000000     1.975000000     2.787000000
