17
-92.86509
C    -0.989000000     0.679000000     0.806000000
H    -1.815000000     1.154000000     1.330000000
C    -0.849000000     0.801000000    -0.563000000
H    -1.421000000     1.527000000    -1.136000000
C     0.190000000     0.113000000    -1.220000000
C     0.544000000     0.495000000    -2.649000000
H     1.102000000     1.433000000    -2.666000000
H     1.141000000    -0.321000000    -3.061000000
H    -0.400000000     0.546000000    -3.195000000
C     0.899000000    -0.822000000    -0.509000000
H     1.681000000    -1.326000000    -1.072000000
C     0.660000000    -0.943000000     0.831000000
H     1.233000000    -1.768000000     1.248000000
C    -0.201000000    -0.156000000     1.543000000
C    -0.550000000    -0.416000000     3.040000000
O    -0.058000000    -1.389000000     3.608000000
O    -1.173000000     0.401000000     3.666000000
