17
-93.21224
C    -0.759000000     1.176000000     0.308000000
H    -1.250000000     2.141000000     0.395000000
C    -0.586000000     0.626000000    -0.971000000
H    -1.028000000     1.156000000    -1.810000000
C     0.215000000    -0.476000000    -1.113000000
C     0.337000000    -0.999000000    -2.546000000
H    -0.629000000    -1.217000000    -3.007000000
H     0.842000000    -0.184000000    -3.068000000
H     0.935000000    -1.905000000    -2.432000000
C     0.719000000    -1.124000000    -0.004000000
H     1.318000000    -2.011000000    -0.196000000
C     0.482000000    -0.613000000     1.304000000
H     0.796000000    -1.285000000     2.098000000
C    -0.211000000     0.563000000     1.443000000
C    -0.390000000     1.196000000     2.839000000
O     0.082000000     0.665000000     3.823000000
O    -0.871000000     2.284000000     2.942000000
