17
-88.38763
C     0.316000000    -1.285000000     0.581000000
H     0.695000000    -2.150000000     1.119000000
C    -0.210000000    -0.215000000     1.251000000
H    -0.390000000    -0.289000000     2.321000000
C    -0.529000000     0.941000000     0.614000000
C    -1.154000000     2.119000000     1.392000000
H    -0.380000000     2.806000000     1.741000000
H    -1.680000000     2.716000000     0.644000000
H    -1.734000000     1.835000000     2.273000000
C    -0.282000000     0.992000000    -0.786000000
H    -0.247000000     1.989000000    -1.218000000
C     0.226000000    -0.109000000    -1.501000000
H     0.248000000     0.035000000    -2.578000000
C     0.552000000    -1.245000000    -0.800000000
C     1.266000000    -2.442000000    -1.497000000
O     1.319000000    -2.457000000    -2.675000000
O     1.976000000    -3.238000000    -0.880000000
