17
-93.78655
C     0.453000000     0.980000000    -1.095000000
H     0.854000000     1.551000000    -1.929000000
C     0.976000000    -0.327000000    -0.838000000
H     1.607000000    -0.747000000    -1.617000000
C     0.463000000    -1.106000000     0.226000000
C     1.069000000    -2.444000000     0.541000000
H     1.348000000    -2.593000000     1.586000000
H     0.325000000    -3.166000000     0.197000000
H     1.939000000    -2.527000000    -0.115000000
C    -0.433000000    -0.624000000     1.166000000
H    -0.783000000    -1.269000000     1.967000000
C    -0.975000000     0.690000000     0.914000000
H    -1.687000000     1.160000000     1.587000000
C    -0.568000000     1.406000000    -0.223000000
C    -1.290000000     2.677000000    -0.652000000
O    -2.236000000     3.132000000     0.010000000
O    -1.057000000     3.201000000    -1.717000000
