17
-95.13241
C     0.787000000     0.989000000    -0.667000000
H     1.440000000     1.690000000    -1.180000000
C     1.344000000     0.006000000     0.135000000
H     2.410000000    -0.176000000     0.248000000
C     0.428000000    -0.849000000     0.795000000
C     1.018000000    -2.003000000     1.627000000
H     1.279000000    -1.644000000     2.625000000
H     0.349000000    -2.856000000     1.500000000
H     1.903000000    -2.388000000     1.115000000
C    -0.940000000    -0.736000000     0.534000000
H    -1.647000000    -1.345000000     1.091000000
C    -1.417000000     0.236000000    -0.309000000
H    -2.488000000     0.311000000    -0.481000000
C    -0.540000000     1.160000000    -0.899000000
C    -1.196000000     2.195000000    -1.830000000
O    -2.318000000     2.640000000    -1.700000000
O    -0.408000000     2.766000000    -2.605000000
