17
-95.77767
C    -0.798000000     0.479000000    -1.183000000
H    -1.312000000     0.904000000    -2.042000000
C     0.347000000     1.087000000    -0.592000000
H     0.711000000     2.004000000    -1.048000000
C     1.032000000     0.533000000     0.539000000
C     2.316000000     1.208000000     0.977000000
H     2.077000000     1.976000000     1.717000000
H     2.976000000     0.494000000     1.473000000
H     2.801000000     1.719000000     0.142000000
C     0.508000000    -0.649000000     1.093000000
H     0.992000000    -1.169000000     1.916000000
C    -0.691000000    -1.221000000     0.550000000
H    -1.119000000    -2.059000000     1.095000000
C    -1.277000000    -0.706000000    -0.628000000
C    -2.494000000    -1.364000000    -1.218000000
O    -2.795000000    -2.482000000    -0.876000000
O    -3.277000000    -0.758000000    -1.911000000
