17
-92.77210
C    -0.422000000    -0.550000000    -1.271000000
H    -0.510000000    -1.224000000    -2.120000000
C     0.833000000    -0.017000000    -0.997000000
H     1.705000000     0.057000000    -1.641000000
C     1.016000000     0.584000000     0.212000000
C     2.298000000     1.360000000     0.425000000
H     2.626000000     1.697000000    -0.560000000
H     2.101000000     2.190000000     1.107000000
H     3.066000000     0.724000000     0.870000000
C     0.064000000     0.532000000     1.176000000
H     0.398000000     1.035000000     2.080000000
C    -1.145000000    -0.110000000     0.984000000
H    -1.792000000    -0.228000000     1.849000000
C    -1.381000000    -0.756000000    -0.253000000
C    -2.645000000    -1.543000000    -0.536000000
O    -3.549000000    -1.586000000     0.279000000
O    -2.665000000    -2.172000000    -1.597000000
