17
-95.37570
C    -0.109000000     1.028000000    -1.110000000
H    -0.126000000     1.838000000    -1.835000000
C     1.028000000     0.200000000    -0.826000000
H     1.916000000     0.257000000    -1.451000000
C     0.981000000    -0.648000000     0.265000000
C     2.212000000    -1.561000000     0.534000000
H     2.956000000    -1.078000000     1.170000000
H     1.965000000    -2.551000000     0.923000000
H     2.839000000    -1.712000000    -0.347000000
C    -0.131000000    -0.772000000     1.066000000
H    -0.201000000    -1.555000000     1.817000000
C    -1.293000000    -0.111000000     0.692000000
H    -2.212000000    -0.210000000     1.263000000
C    -1.296000000     0.825000000    -0.366000000
C    -2.503000000     1.779000000    -0.538000000
O    -3.452000000     1.772000000     0.246000000
O    -2.575000000     2.504000000    -1.500000000
