17
-94.51610
C    -0.586000000     0.130000000    -1.322000000
H    -0.914000000     0.132000000    -2.359000000
C     0.565000000    -0.563000000    -1.016000000
H     1.197000000    -0.954000000    -1.810000000
C     1.022000000    -0.696000000     0.334000000
C     2.376000000    -1.206000000     0.525000000
H     2.173000000    -2.077000000     1.151000000
H     2.900000000    -1.447000000    -0.403000000
H     2.966000000    -0.601000000     1.217000000
C     0.208000000    -0.159000000     1.307000000
H     0.527000000    -0.277000000     2.340000000
C    -0.889000000     0.631000000     0.999000000
H    -1.466000000     1.065000000     1.812000000
C    -1.347000000     0.743000000    -0.321000000
C    -2.585000000     1.534000000    -0.734000000
O    -3.438000000     1.752000000     0.121000000
O    -2.702000000     1.988000000    -1.834000000
