17
-93.86424
C    -0.610000000     0.829000000    -1.051000000
H    -0.883000000     1.445000000    -1.904000000
C     0.621000000     1.095000000    -0.416000000
H     1.050000000     2.052000000    -0.704000000
C     1.086000000     0.288000000     0.555000000
C     2.437000000     0.473000000     1.238000000
H     2.848000000    -0.538000000     1.257000000
H     2.970000000     1.088000000     0.510000000
H     2.456000000     0.945000000     2.223000000
C     0.251000000    -0.713000000     1.006000000
H     0.533000000    -1.241000000     1.913000000
C    -0.986000000    -0.956000000     0.419000000
H    -1.577000000    -1.803000000     0.756000000
C    -1.415000000    -0.261000000    -0.679000000
C    -2.596000000    -0.738000000    -1.501000000
O    -3.047000000    -1.857000000    -1.216000000
O    -3.144000000    -0.109000000    -2.410000000
