17
-90.30729
C     0.167000000    -1.406000000    -0.014000000
H     0.308000000    -2.478000000    -0.125000000
C     1.230000000    -0.531000000    -0.222000000
H     2.207000000    -0.863000000    -0.561000000
C     0.959000000     0.816000000    -0.032000000
C     2.029000000     1.842000000    -0.295000000
H     2.242000000     2.341000000     0.652000000
H     2.935000000     1.352000000    -0.658000000
H     1.626000000     2.498000000    -1.070000000
C    -0.415000000     1.229000000     0.214000000
H    -0.574000000     2.288000000     0.399000000
C    -1.496000000     0.339000000     0.204000000
H    -2.533000000     0.629000000     0.351000000
C    -1.145000000    -1.050000000     0.228000000
C    -2.196000000    -2.071000000     0.328000000
O    -3.258000000    -1.793000000     0.818000000
O    -2.082000000    -3.135000000    -0.225000000
