17
-97.60965
C    -0.740000000    -1.094000000    -0.617000000
H    -1.083000000    -1.978000000    -1.149000000
C     0.043000000    -0.161000000    -1.308000000
H     0.159000000    -0.194000000    -2.388000000
C     0.646000000     0.809000000    -0.548000000
C     1.392000000     1.918000000    -1.272000000
H     2.347000000     1.584000000    -1.682000000
H     0.764000000     2.228000000    -2.110000000
H     1.586000000     2.787000000    -0.640000000
C     0.562000000     0.904000000     0.831000000
H     1.055000000     1.708000000     1.371000000
C    -0.194000000    -0.028000000     1.447000000
H    -0.230000000    -0.058000000     2.533000000
C    -0.826000000    -1.079000000     0.762000000
C    -1.621000000    -2.196000000     1.393000000
O    -1.904000000    -1.964000000     2.568000000
O    -1.954000000    -3.182000000     0.805000000
