17
-95.44304
C    -0.053000000    -0.962000000    -1.142000000
H     0.082000000    -1.524000000    -2.063000000
C     0.734000000     0.180000000    -1.081000000
H     1.380000000     0.486000000    -1.900000000
C     0.761000000     0.944000000     0.060000000
C     1.511000000     2.252000000     0.268000000
H     2.479000000     2.132000000    -0.223000000
H     1.057000000     3.126000000    -0.204000000
H     1.662000000     2.479000000     1.326000000
C    -0.022000000     0.556000000     1.102000000
H    -0.001000000     1.186000000     1.987000000
C    -0.788000000    -0.592000000     1.042000000
H    -1.491000000    -0.725000000     1.861000000
C    -0.847000000    -1.387000000    -0.116000000
C    -1.880000000    -2.448000000    -0.264000000
O    -2.615000000    -2.670000000     0.679000000
O    -1.975000000    -3.027000000    -1.330000000
