17
-87.68421
C    -0.069000000    -1.108000000    -0.885000000
H     0.016000000    -1.859000000    -1.667000000
C     0.564000000     0.072000000    -1.198000000
H     1.009000000     0.267000000    -2.170000000
C     0.538000000     1.101000000    -0.266000000
C     1.098000000     2.396000000    -0.592000000
H     1.973000000     2.202000000    -1.217000000
H     0.468000000     3.155000000    -1.059000000
H     1.532000000     2.824000000     0.314000000
C    -0.200000000     0.943000000     0.940000000
H    -0.328000000     1.848000000     1.529000000
C    -0.748000000    -0.323000000     1.294000000
H    -1.168000000    -0.469000000     2.285000000
C    -0.645000000    -1.418000000     0.387000000
C    -1.256000000    -2.811000000     0.676000000
O    -1.562000000    -3.137000000     1.788000000
O    -1.223000000    -3.687000000    -0.153000000
