17
-95.96256
C     0.046000000    -1.310000000    -0.735000000
H     0.171000000    -2.149000000    -1.416000000
C     0.642000000    -0.073000000    -1.106000000
H     1.249000000    -0.102000000    -2.007000000
C     0.516000000     1.055000000    -0.367000000
C     1.244000000     2.374000000    -0.728000000
H     2.298000000     2.184000000    -0.515000000
H     1.044000000     2.753000000    -1.732000000
H     1.024000000     3.164000000    -0.007000000
C    -0.343000000     1.062000000     0.755000000
H    -0.429000000     2.020000000     1.261000000
C    -0.938000000    -0.196000000     1.155000000
H    -1.547000000    -0.347000000     2.042000000
C    -0.631000000    -1.373000000     0.439000000
C    -1.282000000    -2.674000000     0.831000000
O    -1.720000000    -2.741000000     2.020000000
O    -1.348000000    -3.655000000     0.107000000
