17
-91.51758
C     0.457000000    -1.352000000    -0.170000000
H     0.763000000    -2.331000000    -0.531000000
C     1.172000000    -0.226000000    -0.538000000
H     2.142000000    -0.275000000    -1.026000000
C     0.640000000     1.031000000    -0.296000000
C     1.343000000     2.213000000    -0.852000000
H     1.247000000     3.066000000    -0.177000000
H     2.402000000     2.006000000    -0.687000000
H     1.126000000     2.315000000    -1.917000000
C    -0.556000000     1.143000000     0.326000000
H    -0.973000000     2.137000000     0.469000000
C    -1.313000000    -0.005000000     0.690000000
H    -2.271000000     0.084000000     1.194000000
C    -0.766000000    -1.283000000     0.419000000
C    -1.594000000    -2.510000000     0.888000000
O    -2.503000000    -2.394000000     1.684000000
O    -1.308000000    -3.622000000     0.526000000
