17
-100.58742
C     0.351000000    -1.252000000    -0.698000000
H     0.663000000    -2.085000000    -1.323000000
C     1.085000000    -0.060000000    -0.730000000
H     2.036000000     0.024000000    -1.249000000
C     0.645000000     1.040000000    -0.050000000
C     1.543000000     2.271000000     0.064000000
H     1.278000000     3.008000000    -0.696000000
H     1.316000000     2.805000000     0.989000000
H     2.603000000     2.021000000    -0.023000000
C    -0.552000000     0.958000000     0.646000000
H    -0.975000000     1.803000000     1.182000000
C    -1.354000000    -0.193000000     0.671000000
H    -2.250000000    -0.244000000     1.285000000
C    -0.902000000    -1.273000000    -0.034000000
C    -1.638000000    -2.604000000    -0.043000000
O    -2.667000000    -2.611000000     0.604000000
O    -1.183000000    -3.613000000    -0.588000000
