17
-92.00275
C     1.110000000    -0.905000000    -0.179000000
H     1.986000000    -1.528000000    -0.339000000
C     1.035000000     0.360000000    -0.786000000
H     1.853000000     0.801000000    -1.349000000
C    -0.103000000     1.100000000    -0.568000000
C    -0.198000000     2.426000000    -1.221000000
H     0.613000000     2.980000000    -0.742000000
H    -0.163000000     2.561000000    -2.304000000
H    -1.142000000     2.861000000    -0.886000000
C    -1.117000000     0.660000000     0.273000000
H    -2.038000000     1.213000000     0.441000000
C    -0.970000000    -0.572000000     0.940000000
H    -1.767000000    -1.029000000     1.522000000
C     0.125000000    -1.384000000     0.723000000
C     0.210000000    -2.815000000     1.309000000
O    -0.440000000    -3.085000000     2.262000000
O     1.002000000    -3.647000000     0.897000000
