17
-96.44160
C     1.154000000    -0.482000000     0.797000000
H     2.051000000    -0.700000000     1.372000000
C     0.822000000     0.854000000     0.547000000
H     1.409000000     1.661000000     0.977000000
C    -0.266000000     1.134000000    -0.311000000
C    -0.554000000     2.597000000    -0.656000000
H     0.374000000     3.172000000    -0.639000000
H    -0.924000000     2.613000000    -1.683000000
H    -1.272000000     3.037000000     0.038000000
C    -1.039000000     0.110000000    -0.806000000
H    -1.829000000     0.398000000    -1.496000000
C    -0.790000000    -1.185000000    -0.406000000
H    -1.498000000    -1.926000000    -0.767000000
C     0.295000000    -1.498000000     0.431000000
C     0.533000000    -2.910000000     0.855000000
O     0.110000000    -3.797000000     0.117000000
O     1.429000000    -3.082000000     1.636000000
