17
-97.39384
C     1.405000000    -0.225000000     0.521000000
H     2.474000000    -0.251000000     0.718000000
C     0.889000000     0.936000000    -0.130000000
H     1.520000000     1.790000000    -0.363000000
C    -0.514000000     1.047000000    -0.440000000
C    -0.947000000     2.234000000    -1.347000000
H    -1.652000000     1.810000000    -2.065000000
H    -1.190000000     3.147000000    -0.801000000
H    -0.096000000     2.603000000    -1.924000000
C    -1.357000000    -0.050000000    -0.228000000
H    -2.400000000     0.070000000    -0.510000000
C    -0.799000000    -1.271000000     0.303000000
H    -1.502000000    -2.063000000     0.548000000
C     0.553000000    -1.293000000     0.718000000
C     1.058000000    -2.526000000     1.480000000
O     0.284000000    -3.452000000     1.754000000
O     2.273000000    -2.514000000     1.758000000
