17
-86.92076
C     0.670000000    -0.359000000     1.154000000
H     1.139000000    -0.410000000     2.133000000
C     0.535000000     0.905000000     0.721000000
H     1.039000000     1.730000000     1.217000000
C    -0.160000000     1.109000000    -0.470000000
C    -0.418000000     2.569000000    -0.841000000
H     0.526000000     3.042000000    -1.118000000
H    -0.991000000     2.599000000    -1.770000000
H    -0.915000000     3.163000000    -0.071000000
C    -0.644000000    -0.009000000    -1.182000000
H    -1.210000000     0.103000000    -2.103000000
C    -0.550000000    -1.280000000    -0.645000000
H    -1.057000000    -2.103000000    -1.141000000
C     0.159000000    -1.474000000     0.543000000
C     0.423000000    -2.841000000     1.100000000
O     0.485000000    -3.701000000     0.280000000
O     0.977000000    -3.043000000     2.190000000
