17
-95.32805
C     0.872000000    -0.750000000     1.021000000
H     1.454000000    -1.185000000     1.829000000
C     0.350000000     0.559000000     1.186000000
H     0.463000000     1.097000000     2.123000000
C    -0.466000000     1.085000000     0.208000000
C    -1.049000000     2.465000000     0.308000000
H    -0.360000000     3.236000000    -0.041000000
H    -1.855000000     2.444000000    -0.430000000
H    -1.482000000     2.851000000     1.233000000
C    -0.855000000     0.331000000    -0.886000000
H    -1.604000000     0.682000000    -1.591000000
C    -0.240000000    -0.889000000    -1.167000000
H    -0.478000000    -1.398000000    -2.098000000
C     0.661000000    -1.428000000    -0.180000000
C     1.343000000    -2.693000000    -0.448000000
O     0.988000000    -3.371000000    -1.370000000
O     2.264000000    -3.040000000     0.298000000
