17
-90.82087
C     0.326000000    -0.414000000     1.389000000
H     0.417000000    -0.644000000     2.448000000
C     0.418000000     0.909000000     0.887000000
H     0.773000000     1.701000000     1.541000000
C     0.061000000     1.149000000    -0.448000000
C     0.253000000     2.460000000    -1.011000000
H    -0.466000000     3.213000000    -0.681000000
H     1.251000000     2.870000000    -0.843000000
H     0.120000000     2.339000000    -2.088000000
C    -0.413000000     0.123000000    -1.272000000
H    -0.810000000     0.328000000    -2.263000000
C    -0.649000000    -1.162000000    -0.724000000
H    -0.982000000    -1.962000000    -1.380000000
C    -0.126000000    -1.448000000     0.590000000
C    -0.045000000    -2.800000000     1.105000000
O    -0.742000000    -3.616000000     0.596000000
O     0.612000000    -3.047000000     2.156000000
