17
-95.43497
C     1.241000000    -0.487000000     0.708000000
H     2.250000000    -0.685000000     1.061000000
C     0.718000000     0.845000000     0.720000000
H     1.220000000     1.672000000     1.216000000
C    -0.518000000     1.121000000     0.111000000
C    -0.924000000     2.523000000     0.164000000
H    -1.970000000     2.606000000    -0.138000000
H    -0.807000000     2.900000000     1.182000000
H    -0.375000000     3.141000000    -0.550000000
C    -1.226000000     0.096000000    -0.536000000
H    -2.115000000     0.420000000    -1.071000000
C    -0.679000000    -1.177000000    -0.616000000
H    -1.130000000    -1.980000000    -1.193000000
C     0.545000000    -1.440000000    -0.036000000
C     1.122000000    -2.779000000    -0.321000000
O     0.404000000    -3.650000000    -0.773000000
O     2.250000000    -3.126000000     0.076000000
