17
-95.00160
C     0.812000000    -0.906000000    -0.867000000
H     1.613000000    -1.442000000    -1.369000000
C     0.928000000     0.482000000    -0.796000000
H     1.714000000     1.019000000    -1.321000000
C     0.053000000     1.243000000    -0.024000000
C     0.265000000     2.726000000     0.170000000
H     0.986000000     2.898000000     0.973000000
H     0.542000000     3.223000000    -0.762000000
H    -0.682000000     3.122000000     0.541000000
C    -0.937000000     0.540000000     0.677000000
H    -1.578000000     1.028000000     1.406000000
C    -1.081000000    -0.810000000     0.607000000
H    -1.898000000    -1.282000000     1.146000000
C    -0.117000000    -1.545000000    -0.104000000
C    -0.131000000    -3.047000000    -0.018000000
O    -1.244000000    -3.583000000     0.255000000
O     0.752000000    -3.674000000    -0.506000000
