17
-89.76698
C     0.997000000    -0.429000000     1.025000000
H     1.744000000    -0.635000000     1.787000000
C     0.708000000     0.868000000     0.618000000
H     1.328000000     1.702000000     0.936000000
C    -0.300000000     1.195000000    -0.291000000
C    -0.741000000     2.530000000    -0.471000000
H    -1.815000000     2.525000000    -0.272000000
H    -0.455000000     3.243000000     0.305000000
H    -0.582000000     2.920000000    -1.479000000
C    -0.893000000     0.166000000    -0.967000000
H    -1.708000000     0.419000000    -1.640000000
C    -0.497000000    -1.135000000    -0.715000000
H    -0.979000000    -1.962000000    -1.230000000
C     0.407000000    -1.461000000     0.340000000
C     0.805000000    -2.905000000     0.626000000
O     0.286000000    -3.815000000     0.022000000
O     1.697000000    -3.222000000     1.414000000
