17
-95.57683
C     1.103000000    -0.376000000     0.883000000
H     1.876000000    -0.668000000     1.590000000
C     0.107000000     0.446000000     1.239000000
H     0.036000000     0.825000000     2.255000000
C    -0.880000000     0.783000000     0.269000000
C    -2.120000000     1.591000000     0.717000000
H    -2.342000000     2.360000000    -0.025000000
H    -3.036000000     0.996000000     0.713000000
H    -2.042000000     2.140000000     1.658000000
C    -0.813000000     0.247000000    -0.994000000
H    -1.478000000     0.467000000    -1.826000000
C     0.189000000    -0.653000000    -1.355000000
H     0.282000000    -1.101000000    -2.341000000
C     1.183000000    -0.897000000    -0.390000000
C     2.287000000    -1.840000000    -0.705000000
O     2.324000000    -2.511000000    -1.716000000
O     3.329000000    -1.808000000     0.024000000
