17
-99.97600
C     1.430000000    -0.286000000    -0.106000000
H     2.483000000    -0.413000000    -0.344000000
C     0.773000000     0.824000000    -0.601000000
H     1.372000000     1.496000000    -1.211000000
C    -0.581000000     0.960000000    -0.478000000
C    -1.218000000     2.223000000    -1.056000000
H    -2.209000000     2.325000000    -0.610000000
H    -0.664000000     3.156000000    -0.934000000
H    -1.480000000     2.032000000    -2.098000000
C    -1.296000000    -0.015000000     0.177000000
H    -2.344000000     0.192000000     0.379000000
C    -0.647000000    -1.093000000     0.801000000
H    -1.212000000    -1.808000000     1.393000000
C     0.721000000    -1.239000000     0.638000000
C     1.458000000    -2.427000000     1.234000000
O     0.752000000    -3.305000000     1.756000000
O     2.658000000    -2.622000000     1.053000000
