17
-88.38979
C     1.360000000    -0.482000000    -0.301000000
H     2.361000000    -0.775000000    -0.607000000
C     0.965000000     0.869000000    -0.185000000
H     1.557000000     1.732000000    -0.478000000
C    -0.297000000     1.196000000     0.130000000
C    -0.671000000     2.635000000     0.377000000
H    -1.757000000     2.658000000     0.272000000
H    -0.436000000     2.945000000     1.398000000
H    -0.380000000     3.268000000    -0.465000000
C    -1.246000000     0.161000000     0.187000000
H    -2.324000000     0.222000000     0.314000000
C    -0.863000000    -1.173000000     0.214000000
H    -1.655000000    -1.896000000     0.392000000
C     0.460000000    -1.492000000    -0.047000000
C     0.848000000    -2.911000000    -0.278000000
O     0.035000000    -3.775000000    -0.544000000
O     2.035000000    -3.183000000    -0.380000000
