17
-97.41332
C     1.458000000    -0.163000000    -0.138000000
H     2.530000000    -0.212000000    -0.313000000
C     0.781000000     1.046000000    -0.263000000
H     1.333000000     1.923000000    -0.593000000
C    -0.596000000     1.114000000    -0.066000000
C    -1.327000000     2.400000000    -0.097000000
H    -0.732000000     3.117000000    -0.667000000
H    -2.312000000     2.354000000    -0.566000000
H    -1.536000000     2.768000000     0.909000000
C    -1.278000000    -0.081000000     0.079000000
H    -2.355000000    -0.068000000     0.223000000
C    -0.572000000    -1.302000000     0.216000000
H    -1.080000000    -2.259000000     0.303000000
C     0.810000000    -1.360000000     0.155000000
C     1.476000000    -2.734000000     0.214000000
O     0.760000000    -3.691000000     0.480000000
O     2.644000000    -2.856000000     0.116000000
