17
-93.13710
C     1.490000000    -0.117000000     0.170000000
H     2.570000000    -0.163000000     0.065000000
C     0.751000000     1.006000000    -0.315000000
H     1.326000000     1.818000000    -0.752000000
C    -0.666000000     1.036000000    -0.260000000
C    -1.363000000     2.202000000    -0.848000000
H    -1.787000000     2.819000000    -0.053000000
H    -0.723000000     2.928000000    -1.354000000
H    -2.156000000     1.892000000    -1.532000000
C    -1.346000000    -0.085000000     0.211000000
H    -2.430000000    -0.170000000     0.184000000
C    -0.648000000    -1.272000000     0.589000000
H    -1.231000000    -2.129000000     0.918000000
C     0.790000000    -1.281000000     0.520000000
C     1.584000000    -2.493000000     0.803000000
O     1.037000000    -3.543000000     0.914000000
O     2.800000000    -2.455000000     0.747000000
