17
-91.27920
C     1.068000000    -0.893000000    -0.453000000
H     1.913000000    -1.444000000    -0.857000000
C     1.214000000     0.396000000     0.083000000
H     2.178000000     0.898000000     0.088000000
C     0.167000000     1.092000000     0.603000000
C     0.341000000     2.519000000     0.922000000
H    -0.131000000     3.196000000     0.207000000
H    -0.058000000     2.701000000     1.922000000
H     1.408000000     2.740000000     0.985000000
C    -1.120000000     0.526000000     0.586000000
H    -1.997000000     1.031000000     0.982000000
C    -1.280000000    -0.722000000    -0.050000000
H    -2.244000000    -1.182000000    -0.249000000
C    -0.218000000    -1.428000000    -0.544000000
C    -0.370000000    -2.724000000    -1.255000000
O    -1.414000000    -3.412000000    -1.178000000
O     0.537000000    -3.295000000    -1.795000000
