17
-96.80922
C     1.338000000    -0.666000000    -0.341000000
H     2.315000000    -1.105000000    -0.522000000
C     1.069000000     0.695000000    -0.342000000
H     1.826000000     1.447000000    -0.549000000
C    -0.196000000     1.223000000     0.041000000
C    -0.403000000     2.718000000     0.135000000
H    -1.215000000     2.924000000     0.835000000
H     0.377000000     3.250000000     0.684000000
H    -0.630000000     3.195000000    -0.821000000
C    -1.266000000     0.310000000     0.202000000
H    -2.286000000     0.631000000     0.399000000
C    -1.016000000    -1.071000000     0.149000000
H    -1.884000000    -1.722000000     0.216000000
C     0.280000000    -1.566000000    -0.126000000
C     0.506000000    -3.022000000    -0.094000000
O    -0.444000000    -3.784000000     0.107000000
O     1.637000000    -3.460000000     0.035000000
