17
-92.67205
C     1.002000000    -1.132000000    -0.025000000
H     1.802000000    -1.866000000     0.039000000
C     1.266000000     0.268000000    -0.032000000
H     2.263000000     0.700000000    -0.077000000
C     0.219000000     1.217000000    -0.083000000
C     0.617000000     2.686000000    -0.129000000
H    -0.214000000     3.316000000     0.193000000
H     1.353000000     2.959000000     0.630000000
H     0.959000000     2.954000000    -1.131000000
C    -1.052000000     0.749000000    -0.122000000
H    -1.846000000     1.474000000    -0.284000000
C    -1.383000000    -0.589000000     0.089000000
H    -2.374000000    -1.025000000     0.178000000
C    -0.341000000    -1.523000000     0.052000000
C    -0.661000000    -2.980000000     0.217000000
O    -1.813000000    -3.399000000     0.347000000
O     0.195000000    -3.812000000     0.142000000
