17
-100.92414
C     0.977000000    -1.143000000     0.068000000
H     1.752000000    -1.902000000     0.138000000
C     1.106000000     0.111000000     0.640000000
H     2.059000000     0.309000000     1.122000000
C     0.114000000     1.073000000     0.576000000
C     0.361000000     2.463000000     1.132000000
H     0.652000000     3.149000000     0.334000000
H    -0.551000000     2.899000000     1.544000000
H     1.114000000     2.622000000     1.906000000
C    -1.053000000     0.761000000    -0.122000000
H    -1.786000000     1.562000000    -0.160000000
C    -1.211000000    -0.456000000    -0.735000000
H    -2.080000000    -0.647000000    -1.359000000
C    -0.229000000    -1.457000000    -0.589000000
C    -0.377000000    -2.772000000    -1.259000000
O    -1.444000000    -3.040000000    -1.832000000
O     0.588000000    -3.533000000    -1.407000000
