17
-87.34770
C    -0.023000000    -0.089000000    -1.491000000
H     0.134000000    -0.090000000    -2.566000000
C     0.239000000     1.095000000    -0.732000000
H     0.413000000     2.040000000    -1.240000000
C     0.201000000     1.040000000     0.635000000
C     0.454000000     2.234000000     1.473000000
H     1.411000000     2.676000000     1.189000000
H    -0.357000000     2.959000000     1.377000000
H     0.471000000     1.950000000     2.527000000
C    -0.131000000    -0.132000000     1.237000000
H    -0.112000000    -0.147000000     2.324000000
C    -0.381000000    -1.311000000     0.566000000
H    -0.667000000    -2.241000000     1.051000000
C    -0.285000000    -1.321000000    -0.826000000
C    -0.401000000    -2.556000000    -1.629000000
O    -0.970000000    -3.491000000    -1.171000000
O     0.008000000    -2.610000000    -2.728000000
