17
-96.70017
C     0.052000000    -0.249000000    -1.438000000
H     0.279000000    -0.260000000    -2.501000000
C     0.385000000     0.958000000    -0.818000000
H     0.727000000     1.802000000    -1.413000000
C     0.261000000     1.030000000     0.567000000
C     0.755000000     2.254000000     1.346000000
H     0.603000000     3.175000000     0.779000000
H     0.134000000     2.415000000     2.229000000
H     1.819000000     2.155000000     1.570000000
C    -0.086000000    -0.052000000     1.341000000
H    -0.117000000    -0.018000000     2.427000000
C    -0.499000000    -1.257000000     0.686000000
H    -0.853000000    -2.068000000     1.317000000
C    -0.515000000    -1.328000000    -0.715000000
C    -0.929000000    -2.551000000    -1.566000000
O    -1.011000000    -3.639000000    -1.060000000
O    -0.999000000    -2.359000000    -2.745000000
