17
-89.65923
C     0.832000000    -0.028000000    -1.253000000
H     1.470000000     0.149000000    -2.114000000
C     1.033000000     0.872000000    -0.182000000
H     1.861000000     1.577000000    -0.150000000
C     0.222000000     0.743000000     0.975000000
C     0.242000000     1.749000000     2.073000000
H     0.886000000     2.583000000     1.786000000
H    -0.731000000     2.174000000     2.331000000
H     0.578000000     1.305000000     3.012000000
C    -0.758000000    -0.222000000     1.035000000
H    -1.518000000    -0.330000000     1.804000000
C    -0.883000000    -1.181000000     0.007000000
H    -1.764000000    -1.813000000     0.079000000
C    -0.101000000    -1.037000000    -1.208000000
C    -0.357000000    -1.934000000    -2.406000000
O    -1.208000000    -2.778000000    -2.323000000
O     0.198000000    -1.821000000    -3.458000000
