17
-98.76079
C     0.128000000    -0.366000000    -1.447000000
H     0.312000000    -0.564000000    -2.499000000
C     0.738000000     0.716000000    -0.832000000
H     1.288000000     1.386000000    -1.488000000
C     0.448000000     1.051000000     0.489000000
C     0.900000000     2.361000000     1.143000000
H     1.949000000     2.174000000     1.384000000
H     0.811000000     3.209000000     0.462000000
H     0.316000000     2.413000000     2.064000000
C    -0.223000000     0.107000000     1.285000000
H    -0.308000000     0.363000000     2.338000000
C    -0.734000000    -1.033000000     0.705000000
H    -1.210000000    -1.809000000     1.299000000
C    -0.607000000    -1.300000000    -0.666000000
C    -1.112000000    -2.562000000    -1.263000000
O    -1.635000000    -3.350000000    -0.496000000
O    -1.062000000    -2.790000000    -2.473000000
