17
-99.56190
C     0.834000000    -0.775000000    -0.985000000
H     1.507000000    -1.277000000    -1.676000000
C     1.240000000     0.290000000    -0.246000000
H     2.247000000     0.698000000    -0.277000000
C     0.401000000     0.900000000     0.702000000
C     0.856000000     2.183000000     1.378000000
H     0.333000000     3.029000000     0.926000000
H     0.561000000     2.119000000     2.427000000
H     1.934000000     2.189000000     1.205000000
C    -0.892000000     0.526000000     0.884000000
H    -1.585000000     1.016000000     1.563000000
C    -1.312000000    -0.612000000     0.135000000
H    -2.336000000    -0.938000000     0.301000000
C    -0.454000000    -1.269000000    -0.781000000
C    -0.989000000    -2.403000000    -1.620000000
O    -2.194000000    -2.684000000    -1.659000000
O    -0.143000000    -2.994000000    -2.279000000
