17
-89.60167
C     0.499000000    -0.494000000    -1.282000000
H     0.948000000    -0.661000000    -2.257000000
C     1.190000000     0.271000000    -0.391000000
H     2.103000000     0.763000000    -0.718000000
C     0.670000000     0.625000000     0.805000000
C     1.320000000     1.715000000     1.648000000
H     0.859000000     1.822000000     2.632000000
H     2.381000000     1.486000000     1.765000000
H     1.148000000     2.668000000     1.143000000
C    -0.540000000     0.120000000     1.179000000
H    -0.877000000     0.400000000     2.173000000
C    -1.330000000    -0.563000000     0.270000000
H    -2.266000000    -0.988000000     0.625000000
C    -0.803000000    -0.966000000    -0.990000000
C    -1.529000000    -1.903000000    -1.888000000
O    -2.692000000    -2.292000000    -1.706000000
O    -1.074000000    -2.008000000    -3.015000000
