17
-92.24897
C    -0.085000000     0.157000000    -1.435000000
H    -0.067000000     0.276000000    -2.515000000
C    -0.067000000     1.215000000    -0.493000000
H    -0.040000000     2.239000000    -0.857000000
C     0.013000000     0.913000000     0.846000000
C     0.349000000     2.011000000     1.896000000
H    -0.488000000     2.672000000     2.128000000
H     0.815000000     1.548000000     2.768000000
H     1.122000000     2.668000000     1.492000000
C    -0.059000000    -0.455000000     1.222000000
H    -0.049000000    -0.703000000     2.281000000
C    -0.153000000    -1.490000000     0.276000000
H    -0.193000000    -2.506000000     0.660000000
C    -0.074000000    -1.181000000    -1.078000000
C    -0.218000000    -2.217000000    -2.102000000
O    -1.006000000    -3.100000000    -1.870000000
O     0.202000000    -2.044000000    -3.222000000
