17
-97.30085
C     1.147000000    -0.213000000     1.020000000
H     1.927000000    -0.257000000     1.775000000
C    -0.204000000     0.208000000     1.266000000
H    -0.529000000     0.470000000     2.270000000
C    -1.116000000     0.396000000     0.267000000
C    -2.524000000     0.763000000     0.656000000
H    -2.622000000     1.701000000     1.207000000
H    -3.250000000     0.753000000    -0.160000000
H    -2.880000000    -0.078000000     1.255000000
C    -0.763000000     0.118000000    -1.046000000
H    -1.461000000     0.173000000    -1.877000000
C     0.479000000    -0.293000000    -1.334000000
H     0.781000000    -0.463000000    -2.364000000
C     1.442000000    -0.400000000    -0.344000000
C     2.853000000    -0.860000000    -0.778000000
O     2.993000000    -1.409000000    -1.836000000
O     3.735000000    -0.616000000     0.021000000
