17
-90.84724
C    -0.171000000     0.075000000    -1.475000000
H    -0.259000000     0.266000000    -2.541000000
C     0.513000000     0.981000000    -0.685000000
H     0.981000000     1.870000000    -1.100000000
C     0.568000000     0.806000000     0.691000000
C     1.052000000     1.936000000     1.515000000
H     2.080000000     1.777000000     1.849000000
H     0.829000000     2.907000000     1.070000000
H     0.415000000     1.988000000     2.401000000
C    -0.014000000    -0.318000000     1.271000000
H    -0.033000000    -0.323000000     2.357000000
C    -0.622000000    -1.232000000     0.512000000
H    -1.081000000    -2.066000000     1.037000000
C    -0.678000000    -1.090000000    -0.893000000
C    -1.165000000    -2.185000000    -1.769000000
O    -1.687000000    -3.152000000    -1.307000000
O    -0.731000000    -2.244000000    -2.939000000
