17
-88.23857
C     0.701000000    -0.442000000    -1.260000000
H     1.158000000    -0.630000000    -2.228000000
C    -0.010000000     0.751000000    -1.011000000
H    -0.072000000     1.513000000    -1.784000000
C    -0.651000000     0.961000000     0.176000000
C    -1.422000000     2.278000000     0.300000000
H    -1.225000000     3.022000000    -0.474000000
H    -2.489000000     2.121000000     0.132000000
H    -1.338000000     2.700000000     1.303000000
C    -0.422000000     0.085000000     1.268000000
H    -1.037000000     0.321000000     2.133000000
C     0.282000000    -1.041000000     1.094000000
H     0.362000000    -1.679000000     1.970000000
C     0.791000000    -1.333000000    -0.164000000
C     1.577000000    -2.538000000    -0.408000000
O     1.789000000    -3.301000000     0.476000000
O     2.012000000    -2.794000000    -1.529000000
