17
-92.86610
C     1.310000000    -0.432000000     0.517000000
H     2.166000000    -0.757000000     1.103000000
C     0.124000000    -0.168000000     1.334000000
H     0.139000000    -0.245000000     2.418000000
C    -1.042000000     0.186000000     0.637000000
C    -2.286000000     0.335000000     1.455000000
H    -3.113000000    -0.343000000     1.233000000
H    -2.214000000     0.371000000     2.544000000
H    -2.672000000     1.307000000     1.143000000
C    -1.065000000     0.361000000    -0.789000000
H    -1.928000000     0.780000000    -1.301000000
C     0.100000000     0.117000000    -1.489000000
H     0.153000000     0.138000000    -2.575000000
C     1.329000000    -0.185000000    -0.842000000
C     2.634000000    -0.419000000    -1.554000000
O     2.653000000    -0.499000000    -2.822000000
O     3.714000000    -0.555000000    -1.019000000
