17
-83.70618
C     1.108000000    -0.364000000    -0.986000000
H     1.950000000    -0.538000000    -1.651000000
C     0.473000000     0.888000000    -0.853000000
H     0.789000000     1.749000000    -1.437000000
C    -0.541000000     1.106000000     0.082000000
C    -1.274000000     2.385000000     0.284000000
H    -1.896000000     2.405000000     1.182000000
H    -0.631000000     3.268000000     0.317000000
H    -1.950000000     2.663000000    -0.527000000
C    -0.860000000     0.089000000     0.877000000
H    -1.702000000     0.168000000     1.560000000
C    -0.297000000    -1.169000000     0.773000000
H    -0.626000000    -1.868000000     1.538000000
C     0.726000000    -1.406000000    -0.186000000
C     1.336000000    -2.757000000    -0.330000000
O     1.150000000    -3.672000000     0.441000000
O     2.248000000    -2.955000000    -1.088000000
