17
-92.65085
C     0.216000000     1.059000000    -1.070000000
H     0.332000000     1.926000000    -1.715000000
C    -0.444000000     1.254000000     0.151000000
H    -0.814000000     2.244000000     0.402000000
C    -0.676000000     0.188000000     0.993000000
C    -1.388000000     0.298000000     2.290000000
H    -1.100000000     1.196000000     2.840000000
H    -2.395000000     0.476000000     1.908000000
H    -1.561000000    -0.569000000     2.931000000
C    -0.115000000    -1.079000000     0.714000000
H    -0.201000000    -1.941000000     1.370000000
C     0.634000000    -1.253000000    -0.404000000
H     1.206000000    -2.158000000    -0.592000000
C     0.874000000    -0.182000000    -1.298000000
C     1.614000000    -0.398000000    -2.546000000
O     2.230000000    -1.475000000    -2.573000000
O     1.595000000     0.416000000    -3.408000000
