17
-79.40620
C     0.373000000    -0.537000000    -1.305000000
H     0.661000000    -0.869000000    -2.299000000
C    -0.156000000     0.701000000    -1.094000000
H    -0.212000000     1.310000000    -1.992000000
C    -0.448000000     1.109000000     0.174000000
C    -0.997000000     2.490000000     0.478000000
H    -1.332000000     3.017000000    -0.418000000
H    -1.934000000     2.379000000     1.027000000
H    -0.359000000     3.143000000     1.076000000
C    -0.251000000     0.201000000     1.220000000
H    -0.462000000     0.503000000     2.243000000
C     0.304000000    -0.998000000     1.020000000
H     0.413000000    -1.585000000     1.928000000
C     0.606000000    -1.431000000    -0.233000000
C     1.134000000    -2.771000000    -0.531000000
O     1.471000000    -3.482000000     0.342000000
O     1.194000000    -3.185000000    -1.629000000
