17
-86.56843
C     1.299000000     0.593000000    -0.420000000
H     2.132000000     1.261000000    -0.625000000
C     0.638000000     0.936000000     0.784000000
H     1.033000000     1.695000000     1.454000000
C    -0.595000000     0.323000000     1.038000000
C    -1.420000000     0.549000000     2.254000000
H    -2.458000000     0.776000000     2.001000000
H    -1.415000000    -0.397000000     2.799000000
H    -0.882000000     1.291000000     2.847000000
C    -1.113000000    -0.661000000     0.125000000
H    -1.992000000    -1.188000000     0.487000000
C    -0.419000000    -0.965000000    -1.022000000
H    -0.785000000    -1.661000000    -1.772000000
C     0.759000000    -0.297000000    -1.315000000
C     1.503000000    -0.622000000    -2.563000000
O     1.036000000    -1.030000000    -3.602000000
O     2.677000000    -0.603000000    -2.466000000
