17
-98.85157
C     1.124000000    -0.044000000     0.908000000
H     1.871000000    -0.034000000     1.698000000
C    -0.181000000     0.270000000     1.226000000
H    -0.476000000     0.464000000     2.254000000
C    -1.143000000     0.232000000     0.254000000
C    -2.572000000     0.721000000     0.640000000
H    -3.310000000     0.563000000    -0.149000000
H    -2.883000000     0.237000000     1.569000000
H    -2.539000000     1.788000000     0.869000000
C    -0.847000000    -0.143000000    -1.014000000
H    -1.592000000    -0.213000000    -1.803000000
C     0.438000000    -0.482000000    -1.339000000
H     0.654000000    -0.828000000    -2.346000000
C     1.459000000    -0.446000000    -0.382000000
C     2.913000000    -0.655000000    -0.703000000
O     3.313000000    -0.616000000    -1.875000000
O     3.778000000    -0.819000000     0.188000000
