17
-99.61964
C     0.377000000     1.128000000    -0.891000000
H     0.508000000     2.061000000    -1.434000000
C    -0.584000000     1.102000000     0.119000000
H    -0.997000000     2.084000000     0.335000000
C    -0.915000000    -0.020000000     0.886000000
C    -1.984000000    -0.041000000     1.929000000
H    -2.562000000    -0.963000000     1.842000000
H    -1.605000000     0.149000000     2.936000000
H    -2.723000000     0.722000000     1.675000000
C    -0.216000000    -1.199000000     0.585000000
H    -0.342000000    -2.081000000     1.209000000
C     0.790000000    -1.171000000    -0.453000000
H     1.287000000    -2.108000000    -0.690000000
C     1.041000000    -0.027000000    -1.203000000
C     2.283000000     0.084000000    -2.071000000
O     2.944000000    -0.938000000    -2.318000000
O     2.691000000     1.213000000    -2.458000000
