17
-88.97706
C     1.100000000     0.060000000    -0.954000000
H     1.900000000     0.194000000    -1.677000000
C    -0.188000000     0.578000000    -1.095000000
H    -0.394000000     1.130000000    -2.008000000
C    -1.156000000     0.455000000    -0.131000000
C    -2.541000000     0.961000000    -0.565000000
H    -2.395000000     1.771000000    -1.283000000
H    -3.218000000     0.240000000    -1.029000000
H    -3.073000000     1.406000000     0.279000000
C    -0.803000000    -0.235000000     1.064000000
H    -1.598000000    -0.248000000     1.804000000
C     0.532000000    -0.709000000     1.284000000
H     0.772000000    -1.209000000     2.219000000
C     1.488000000    -0.484000000     0.290000000
C     2.821000000    -1.049000000     0.543000000
O     3.132000000    -1.603000000     1.616000000
O     3.629000000    -1.258000000    -0.354000000
