17
-91.03465
C     1.417000000     0.313000000    -0.210000000
H     2.435000000     0.694000000    -0.172000000
C     0.459000000     1.248000000    -0.153000000
H     0.731000000     2.294000000    -0.041000000
C    -0.900000000     0.835000000    -0.071000000
C    -2.047000000     1.774000000     0.099000000
H    -2.860000000     1.112000000     0.405000000
H    -1.914000000     2.492000000     0.911000000
H    -2.341000000     2.217000000    -0.854000000
C    -1.182000000    -0.514000000     0.151000000
H    -2.192000000    -0.855000000     0.364000000
C    -0.154000000    -1.420000000     0.100000000
H    -0.497000000    -2.451000000     0.071000000
C     1.177000000    -1.055000000    -0.090000000
C     2.309000000    -1.974000000    -0.149000000
O     2.183000000    -3.121000000     0.258000000
O     3.370000000    -1.590000000    -0.614000000
