17
-93.89518
C     1.494000000     0.197000000    -0.195000000
H     2.556000000     0.427000000    -0.189000000
C     0.556000000     1.235000000    -0.255000000
H     0.829000000     2.283000000    -0.344000000
C    -0.795000000     0.903000000    -0.114000000
C    -1.909000000     1.971000000    -0.105000000
H    -2.835000000     1.597000000     0.338000000
H    -1.489000000     2.699000000     0.592000000
H    -2.253000000     2.299000000    -1.088000000
C    -1.164000000    -0.381000000     0.127000000
H    -2.219000000    -0.582000000     0.295000000
C    -0.287000000    -1.452000000     0.197000000
H    -0.729000000    -2.436000000     0.334000000
C     1.114000000    -1.132000000    -0.004000000
C     2.100000000    -2.236000000     0.124000000
O     1.849000000    -3.243000000     0.756000000
O     3.185000000    -2.157000000    -0.464000000
