17
-96.40668
C     1.276000000     0.766000000     0.310000000
H     2.062000000     1.406000000     0.704000000
C    -0.041000000     0.934000000     0.891000000
H    -0.146000000     1.611000000     1.735000000
C    -1.125000000     0.158000000     0.463000000
C    -2.463000000     0.406000000     1.115000000
H    -2.660000000     1.443000000     1.395000000
H    -3.239000000     0.286000000     0.356000000
H    -2.734000000    -0.289000000     1.914000000
C    -0.967000000    -0.697000000    -0.580000000
H    -1.850000000    -1.113000000    -1.059000000
C     0.301000000    -0.984000000    -1.048000000
H     0.447000000    -1.753000000    -1.801000000
C     1.450000000    -0.290000000    -0.610000000
C     2.878000000    -0.551000000    -1.140000000
O     3.012000000    -1.454000000    -1.914000000
O     3.793000000     0.129000000    -0.732000000
