17
-92.50446
C     1.397000000     0.317000000    -0.228000000
H     2.417000000     0.498000000    -0.558000000
C     0.334000000     1.224000000    -0.417000000
H     0.532000000     2.164000000    -0.927000000
C    -0.935000000     0.795000000    -0.105000000
C    -2.077000000     1.731000000    -0.314000000
H    -2.444000000     1.518000000    -1.321000000
H    -2.866000000     1.539000000     0.416000000
H    -1.696000000     2.752000000    -0.372000000
C    -1.208000000    -0.439000000     0.357000000
H    -2.205000000    -0.741000000     0.667000000
C    -0.154000000    -1.413000000     0.532000000
H    -0.199000000    -2.451000000     0.850000000
C     1.100000000    -1.013000000     0.171000000
C     2.302000000    -1.963000000     0.314000000
O     2.287000000    -3.027000000     0.912000000
O     3.423000000    -1.490000000     0.030000000
