17
-92.24128
C     1.267000000     0.611000000     0.458000000
H     2.156000000     1.180000000     0.721000000
C     0.061000000     1.299000000     0.219000000
H     0.003000000     2.355000000     0.467000000
C    -1.087000000     0.556000000    -0.084000000
C    -2.284000000     1.357000000    -0.459000000
H    -2.199000000     1.855000000    -1.427000000
H    -3.242000000     0.833000000    -0.478000000
H    -2.490000000     2.051000000     0.358000000
C    -1.028000000    -0.845000000    -0.321000000
H    -1.918000000    -1.418000000    -0.568000000
C     0.176000000    -1.541000000    -0.122000000
H     0.230000000    -2.614000000    -0.289000000
C     1.368000000    -0.783000000     0.201000000
C     2.664000000    -1.417000000     0.497000000
O     2.654000000    -2.652000000     0.650000000
O     3.669000000    -0.831000000     0.172000000
