17
-94.00083
C     1.496000000     0.046000000    -0.003000000
H     2.569000000     0.220000000     0.008000000
C     0.610000000     0.819000000    -0.784000000
H     0.913000000     1.556000000    -1.524000000
C    -0.745000000     0.696000000    -0.683000000
C    -1.721000000     1.469000000    -1.557000000
H    -2.066000000     2.336000000    -0.991000000
H    -1.238000000     1.865000000    -2.453000000
H    -2.411000000     0.706000000    -1.925000000
C    -1.251000000    -0.273000000     0.172000000
H    -2.321000000    -0.462000000     0.163000000
C    -0.380000000    -1.049000000     0.905000000
H    -0.915000000    -1.681000000     1.609000000
C     0.992000000    -0.825000000     0.907000000
C     1.947000000    -1.613000000     1.784000000
O     1.538000000    -2.694000000     2.259000000
O     2.979000000    -1.111000000     2.106000000
