17
-95.74702
C     1.244000000     0.725000000    -0.142000000
H     2.089000000     1.385000000    -0.322000000
C    -0.015000000     1.138000000    -0.546000000
H    -0.172000000     2.134000000    -0.952000000
C    -1.167000000     0.334000000    -0.354000000
C    -2.502000000     0.879000000    -0.752000000
H    -2.511000000     1.501000000    -1.649000000
H    -3.184000000     0.041000000    -0.912000000
H    -2.824000000     1.423000000     0.138000000
C    -0.989000000    -0.871000000     0.244000000
H    -1.803000000    -1.545000000     0.499000000
C     0.305000000    -1.279000000     0.669000000
H     0.393000000    -2.275000000     1.095000000
C     1.442000000    -0.513000000     0.410000000
C     2.828000000    -0.897000000     0.777000000
O     3.051000000    -1.985000000     1.259000000
O     3.811000000    -0.196000000     0.533000000
