17
-94.84647
C     0.103000000    -0.301000000     1.461000000
H     0.300000000    -0.348000000     2.529000000
C    -0.309000000     0.927000000     0.892000000
H    -0.416000000     1.811000000     1.515000000
C    -0.464000000     1.061000000    -0.461000000
C    -0.961000000     2.321000000    -1.114000000
H    -1.236000000     2.182000000    -2.162000000
H    -1.745000000     2.813000000    -0.535000000
H    -0.132000000     3.029000000    -1.182000000
C    -0.199000000    -0.038000000    -1.281000000
H    -0.543000000    -0.054000000    -2.312000000
C     0.261000000    -1.241000000    -0.673000000
H     0.438000000    -2.091000000    -1.328000000
C     0.544000000    -1.318000000     0.655000000
C     1.284000000    -2.584000000     1.190000000
O     1.444000000    -3.524000000     0.460000000
O     1.629000000    -2.645000000     2.347000000
