17
-90.68948
C     0.764000000     1.266000000     0.170000000
H     1.202000000     2.260000000     0.211000000
C     0.092000000     0.826000000    -0.969000000
H     0.063000000     1.487000000    -1.832000000
C    -0.522000000    -0.404000000    -1.081000000
C    -1.115000000    -0.762000000    -2.353000000
H    -2.023000000    -1.334000000    -2.151000000
H    -1.401000000     0.072000000    -2.998000000
H    -0.415000000    -1.409000000    -2.887000000
C    -0.610000000    -1.199000000     0.062000000
H    -1.153000000    -2.140000000     0.034000000
C    -0.084000000    -0.761000000     1.290000000
H    -0.124000000    -1.302000000     2.232000000
C     0.731000000     0.420000000     1.304000000
C     1.298000000     0.912000000     2.630000000
O     1.170000000     0.211000000     3.582000000
O     2.131000000     1.860000000     2.761000000
