17
-98.75588
C     0.666000000     1.131000000     0.715000000
H     1.199000000     1.990000000     1.116000000
C     0.114000000     1.173000000    -0.566000000
H     0.159000000     2.045000000    -1.214000000
C    -0.568000000     0.050000000    -1.081000000
C    -1.423000000     0.242000000    -2.364000000
H    -1.850000000    -0.646000000    -2.835000000
H    -2.285000000     0.852000000    -2.086000000
H    -0.837000000     0.734000000    -3.143000000
C    -0.548000000    -1.187000000    -0.375000000
H    -1.052000000    -2.093000000    -0.700000000
C     0.162000000    -1.242000000     0.801000000
H     0.212000000    -2.217000000     1.279000000
C     0.775000000    -0.084000000     1.400000000
C     1.506000000    -0.220000000     2.695000000
O     1.444000000    -1.208000000     3.419000000
O     2.318000000     0.685000000     2.936000000
