17
-98.98240
C     0.823000000     1.118000000     0.406000000
H     1.350000000     2.053000000     0.579000000
C     0.155000000     0.985000000    -0.787000000
H     0.232000000     1.805000000    -1.496000000
C    -0.583000000    -0.106000000    -1.091000000
C    -0.987000000    -0.328000000    -2.484000000
H    -1.077000000    -1.391000000    -2.715000000
H    -1.939000000     0.167000000    -2.692000000
H    -0.317000000     0.196000000    -3.169000000
C    -0.778000000    -1.119000000    -0.148000000
H    -1.426000000    -1.964000000    -0.368000000
C    -0.171000000    -0.992000000     1.112000000
H    -0.351000000    -1.668000000     1.944000000
C     0.666000000     0.149000000     1.425000000
C     1.301000000     0.315000000     2.802000000
O     0.892000000    -0.343000000     3.756000000
O     2.217000000     1.125000000     2.918000000
