17
-95.82935
C     0.275000000     0.641000000     1.215000000
H     0.494000000     1.141000000     2.156000000
C    -0.426000000     1.273000000     0.203000000
H    -0.670000000     2.326000000     0.318000000
C    -0.606000000     0.497000000    -0.989000000
C    -1.288000000     1.163000000    -2.163000000
H    -0.579000000     1.652000000    -2.835000000
H    -1.882000000     0.400000000    -2.670000000
H    -2.027000000     1.849000000    -1.743000000
C    -0.151000000    -0.825000000    -1.041000000
H    -0.370000000    -1.486000000    -1.875000000
C     0.520000000    -1.396000000     0.080000000
H     0.746000000    -2.457000000     0.012000000
C     0.774000000    -0.652000000     1.242000000
C     1.542000000    -1.200000000     2.374000000
O     1.757000000    -2.393000000     2.364000000
O     1.891000000    -0.537000000     3.350000000
