17
-93.18165
C     1.461000000     0.212000000    -0.220000000
H     2.519000000     0.389000000    -0.394000000
C     0.468000000     0.648000000    -1.104000000
H     0.837000000     1.168000000    -1.984000000
C    -0.863000000     0.481000000    -0.737000000
C    -1.929000000     0.873000000    -1.659000000
H    -1.367000000     0.988000000    -2.589000000
H    -2.680000000     0.134000000    -1.946000000
H    -2.465000000     1.784000000    -1.385000000
C    -1.204000000    -0.122000000     0.442000000
H    -2.229000000    -0.257000000     0.778000000
C    -0.253000000    -0.634000000     1.311000000
H    -0.562000000    -1.131000000     2.227000000
C     1.088000000    -0.544000000     0.902000000
C     2.118000000    -1.187000000     1.812000000
O     1.857000000    -2.203000000     2.426000000
O     3.204000000    -0.605000000     2.125000000
