17
-96.78027
C     1.164000000    -0.161000000     0.921000000
H     2.085000000    -0.302000000     1.479000000
C     1.276000000    -0.006000000    -0.467000000
H     2.251000000    -0.054000000    -0.945000000
C     0.111000000     0.126000000    -1.214000000
C     0.096000000     0.047000000    -2.760000000
H     0.943000000     0.504000000    -3.276000000
H     0.020000000    -1.002000000    -3.052000000
H    -0.775000000     0.572000000    -3.159000000
C    -1.106000000     0.333000000    -0.535000000
H    -2.000000000     0.542000000    -1.117000000
C    -1.167000000     0.357000000     0.866000000
H    -2.173000000     0.491000000     1.257000000
C    -0.041000000    -0.013000000     1.627000000
C    -0.177000000    -0.324000000     3.095000000
O    -1.293000000    -0.471000000     3.515000000
O     0.791000000    -0.632000000     3.762000000
