17
-91.67761
C     0.309000000     0.065000000     1.384000000
H     0.644000000     0.254000000     2.401000000
C     0.554000000     1.004000000     0.450000000
H     1.059000000     1.908000000     0.780000000
C     0.181000000     0.857000000    -0.899000000
C     0.710000000     1.906000000    -1.866000000
H     1.532000000     2.449000000    -1.396000000
H     1.140000000     1.392000000    -2.728000000
H    -0.063000000     2.606000000    -2.190000000
C    -0.538000000    -0.281000000    -1.165000000
H    -0.842000000    -0.278000000    -2.208000000
C    -0.806000000    -1.265000000    -0.235000000
H    -1.270000000    -2.200000000    -0.540000000
C    -0.309000000    -1.105000000     1.076000000
C    -0.716000000    -2.122000000     2.114000000
O    -0.881000000    -3.264000000     1.706000000
O    -0.702000000    -1.920000000     3.310000000
