17
-97.95532
C     0.983000000     0.534000000     0.979000000
H     1.779000000     0.906000000     1.619000000
C     1.182000000     0.283000000    -0.385000000
H     2.054000000     0.598000000    -0.953000000
C     0.157000000    -0.192000000    -1.201000000
C     0.404000000    -0.288000000    -2.718000000
H     1.410000000    -0.625000000    -2.974000000
H    -0.383000000    -0.927000000    -3.124000000
H     0.337000000     0.668000000    -3.242000000
C    -1.074000000    -0.518000000    -0.620000000
H    -1.823000000    -0.844000000    -1.337000000
C    -1.297000000    -0.288000000     0.750000000
H    -2.262000000    -0.545000000     1.180000000
C    -0.269000000     0.236000000     1.571000000
C    -0.373000000     0.342000000     3.110000000
O    -1.426000000     0.016000000     3.608000000
O     0.593000000     0.647000000     3.738000000
