17
-98.58146
C     0.898000000     0.012000000     1.173000000
H     1.643000000     0.133000000     1.954000000
C     1.312000000     0.059000000    -0.159000000
H     2.389000000     0.104000000    -0.299000000
C     0.343000000     0.080000000    -1.170000000
C     0.762000000    -0.009000000    -2.611000000
H     0.068000000    -0.535000000    -3.269000000
H     0.912000000     0.988000000    -3.031000000
H     1.704000000    -0.560000000    -2.581000000
C    -1.013000000     0.084000000    -0.895000000
H    -1.719000000     0.042000000    -1.721000000
C    -1.394000000     0.057000000     0.452000000
H    -2.444000000     0.060000000     0.734000000
C    -0.436000000     0.009000000     1.530000000
C    -0.892000000    -0.127000000     2.911000000
O    -2.094000000    -0.079000000     3.231000000
O    -0.044000000    -0.325000000     3.755000000
