17
-90.31070
C     0.685000000     0.818000000     1.007000000
H     1.329000000     1.456000000     1.606000000
C     1.000000000     0.642000000    -0.347000000
H     1.860000000     1.160000000    -0.763000000
C     0.309000000    -0.176000000    -1.146000000
C     0.598000000    -0.065000000    -2.604000000
H     0.662000000     0.962000000    -2.970000000
H     1.568000000    -0.500000000    -2.851000000
H    -0.247000000    -0.532000000    -3.115000000
C    -0.839000000    -0.805000000    -0.691000000
H    -1.430000000    -1.455000000    -1.332000000
C    -1.180000000    -0.687000000     0.647000000
H    -2.023000000    -1.163000000     1.142000000
C    -0.396000000     0.089000000     1.501000000
C    -0.592000000     0.091000000     2.926000000
O    -1.527000000    -0.509000000     3.367000000
O     0.224000000     0.675000000     3.622000000
