17
-99.60512
C     0.686000000     0.547000000     1.207000000
H     1.060000000     0.954000000     2.143000000
C    -0.617000000     0.800000000     0.822000000
H    -1.241000000     1.436000000     1.444000000
C    -1.137000000     0.224000000    -0.338000000
C    -2.555000000     0.606000000    -0.778000000
H    -2.777000000     1.580000000    -0.337000000
H    -2.745000000     0.578000000    -1.853000000
H    -3.347000000    -0.035000000    -0.386000000
C    -0.415000000    -0.654000000    -1.096000000
H    -0.831000000    -1.100000000    -1.996000000
C     0.950000000    -0.855000000    -0.738000000
H     1.552000000    -1.556000000    -1.311000000
C     1.503000000    -0.284000000     0.417000000
C     2.918000000    -0.629000000     0.798000000
O     3.445000000    -1.693000000     0.437000000
O     3.545000000     0.077000000     1.565000000
