17
-98.51855
C     1.343000000     0.483000000     0.203000000
H     2.389000000     0.633000000     0.460000000
C     1.023000000    -0.647000000    -0.570000000
H     1.826000000    -1.299000000    -0.903000000
C    -0.321000000    -0.903000000    -0.768000000
C    -0.713000000    -2.193000000    -1.479000000
H     0.128000000    -2.761000000    -1.881000000
H    -1.209000000    -2.799000000    -0.718000000
H    -1.488000000    -1.903000000    -2.192000000
C    -1.253000000    -0.063000000    -0.244000000
H    -2.301000000    -0.286000000    -0.425000000
C    -0.929000000     1.005000000     0.554000000
H    -1.673000000     1.660000000     1.001000000
C     0.411000000     1.307000000     0.757000000
C     0.809000000     2.325000000     1.778000000
O    -0.042000000     3.029000000     2.291000000
O     1.999000000     2.418000000     2.139000000
