17
-100.42081
C     1.178000000     0.508000000     0.675000000
H     2.118000000     0.842000000     1.104000000
C     0.979000000    -0.759000000     0.157000000
H     1.824000000    -1.442000000     0.197000000
C    -0.163000000    -1.150000000    -0.454000000
C    -0.319000000    -2.577000000    -0.903000000
H    -1.325000000    -2.967000000    -0.734000000
H    -0.116000000    -2.549000000    -1.976000000
H     0.372000000    -3.263000000    -0.407000000
C    -1.199000000    -0.207000000    -0.640000000
H    -2.161000000    -0.409000000    -1.104000000
C    -0.957000000     1.120000000    -0.188000000
H    -1.638000000     1.939000000    -0.402000000
C     0.166000000     1.455000000     0.547000000
C     0.358000000     2.843000000     1.153000000
O    -0.621000000     3.532000000     1.487000000
O     1.499000000     3.088000000     1.486000000
