17
-96.41771
C     1.160000000     0.634000000     0.783000000
H     1.962000000     1.041000000     1.394000000
C     1.274000000    -0.520000000    -0.012000000
H     2.194000000    -1.096000000     0.047000000
C     0.192000000    -0.886000000    -0.801000000
C     0.245000000    -2.230000000    -1.587000000
H     0.437000000    -1.893000000    -2.608000000
H     1.085000000    -2.847000000    -1.263000000
H    -0.784000000    -2.595000000    -1.550000000
C    -1.039000000    -0.269000000    -0.723000000
H    -1.895000000    -0.681000000    -1.251000000
C    -1.161000000     0.819000000     0.119000000
H    -2.064000000     1.418000000     0.036000000
C    -0.127000000     1.286000000     0.880000000
C    -0.400000000     2.383000000     1.884000000
O    -1.552000000     2.837000000     1.928000000
O     0.469000000     2.594000000     2.717000000
