17
-94.41040
C     1.000000000     0.443000000     0.986000000
H     1.802000000     0.671000000     1.683000000
C     1.236000000    -0.503000000    -0.036000000
H     2.211000000    -0.976000000    -0.124000000
C     0.225000000    -0.821000000    -0.927000000
C     0.340000000    -1.766000000    -2.112000000
H     0.569000000    -2.797000000    -1.833000000
H    -0.530000000    -1.828000000    -2.770000000
H     1.173000000    -1.435000000    -2.735000000
C    -1.035000000    -0.216000000    -0.699000000
H    -1.935000000    -0.435000000    -1.269000000
C    -1.201000000     0.719000000     0.325000000
H    -2.150000000     1.202000000     0.541000000
C    -0.167000000     1.033000000     1.175000000
C    -0.437000000     1.992000000     2.281000000
O    -1.571000000     2.198000000     2.636000000
O     0.477000000     2.527000000     2.879000000
