17
-89.52177
C     1.276000000     0.273000000     0.707000000
H     2.235000000     0.526000000     1.153000000
C     1.083000000    -0.716000000    -0.243000000
H     1.937000000    -1.376000000    -0.373000000
C    -0.127000000    -0.881000000    -0.866000000
C    -0.401000000    -1.884000000    -1.940000000
H    -0.096000000    -1.456000000    -2.898000000
H     0.136000000    -2.805000000    -1.708000000
H    -1.477000000    -2.069000000    -1.965000000
C    -1.186000000    -0.003000000    -0.523000000
H    -2.143000000    -0.266000000    -0.967000000
C    -1.041000000     0.890000000     0.511000000
H    -1.860000000     1.545000000     0.800000000
C     0.206000000     1.070000000     1.142000000
C     0.432000000     2.088000000     2.157000000
O    -0.476000000     2.821000000     2.364000000
O     1.499000000     2.241000000     2.648000000
