17
-87.21038
C     0.887000000     1.161000000     0.129000000
H     1.578000000     1.991000000     0.005000000
C     1.123000000     0.017000000    -0.603000000
H     2.013000000    -0.004000000    -1.227000000
C     0.277000000    -1.048000000    -0.676000000
C     0.397000000    -2.132000000    -1.673000000
H    -0.615000000    -2.288000000    -2.053000000
H     1.161000000    -1.939000000    -2.430000000
H     0.708000000    -3.054000000    -1.179000000
C    -0.851000000    -0.963000000     0.128000000
H    -1.539000000    -1.805000000     0.122000000
C    -1.024000000     0.112000000     1.037000000
H    -1.888000000     0.176000000     1.692000000
C    -0.211000000     1.200000000     1.037000000
C    -0.558000000     2.471000000     1.751000000
O    -1.683000000     2.735000000     2.111000000
O     0.228000000     3.368000000     1.831000000
