17
-94.51702
C     0.085000000     0.104000000     1.495000000
H     0.147000000     0.021000000     2.577000000
C    -0.132000000    -1.065000000     0.757000000
H    -0.232000000    -2.035000000     1.237000000
C    -0.256000000    -1.066000000    -0.663000000
C    -0.283000000    -2.333000000    -1.377000000
H    -0.414000000    -2.155000000    -2.446000000
H     0.682000000    -2.843000000    -1.332000000
H    -1.043000000    -3.072000000    -1.114000000
C    -0.087000000     0.219000000    -1.276000000
H    -0.202000000     0.204000000    -2.357000000
C     0.116000000     1.393000000    -0.536000000
H     0.241000000     2.324000000    -1.084000000
C     0.223000000     1.367000000     0.804000000
C     0.442000000     2.612000000     1.587000000
O     0.630000000     3.677000000     0.971000000
O     0.075000000     2.644000000     2.752000000
