17
-91.49841
C     0.022000000    -0.131000000     1.454000000
H     0.092000000    -0.322000000     2.522000000
C     0.029000000    -1.117000000     0.460000000
H     0.002000000    -2.180000000     0.685000000
C    -0.192000000    -0.874000000    -0.889000000
C    -0.098000000    -2.079000000    -1.817000000
H    -0.021000000    -1.840000000    -2.880000000
H     0.760000000    -2.687000000    -1.521000000
H    -0.956000000    -2.747000000    -1.720000000
C    -0.178000000     0.431000000    -1.219000000
H    -0.235000000     0.700000000    -2.270000000
C     0.082000000     1.475000000    -0.343000000
H     0.114000000     2.515000000    -0.658000000
C     0.046000000     1.177000000     1.051000000
C     0.159000000     2.253000000     2.079000000
O     0.620000000     3.374000000     1.827000000
O    -0.240000000     2.054000000     3.233000000
