17
-91.74902
C    -0.641000000    -0.689000000     1.105000000
H    -1.060000000    -1.264000000     1.927000000
C     0.411000000    -1.169000000     0.362000000
H     0.845000000    -2.128000000     0.632000000
C     0.933000000    -0.416000000    -0.744000000
C     2.220000000    -0.840000000    -1.326000000
H     2.019000000    -1.767000000    -1.868000000
H     2.594000000    -0.111000000    -2.048000000
H     2.923000000    -1.069000000    -0.522000000
C     0.311000000     0.751000000    -1.090000000
H     0.670000000     1.379000000    -1.901000000
C    -0.849000000     1.176000000    -0.400000000
H    -1.373000000     2.101000000    -0.626000000
C    -1.266000000     0.509000000     0.742000000
C    -2.310000000     1.054000000     1.676000000
O    -2.678000000     2.165000000     1.579000000
O    -2.756000000     0.323000000     2.497000000
