17
-95.52524
C    -0.953000000    -0.342000000     1.111000000
H    -1.647000000    -0.632000000     1.896000000
C    -0.372000000    -1.166000000     0.195000000
H    -0.495000000    -2.240000000     0.305000000
C     0.503000000    -0.788000000    -0.828000000
C     1.149000000    -1.821000000    -1.695000000
H     2.200000000    -1.949000000    -1.425000000
H     0.622000000    -2.775000000    -1.628000000
H     1.227000000    -1.521000000    -2.742000000
C     0.782000000     0.565000000    -0.927000000
H     1.446000000     0.929000000    -1.707000000
C     0.260000000     1.475000000    -0.009000000
H     0.329000000     2.539000000    -0.219000000
C    -0.640000000     0.987000000     1.014000000
C    -1.354000000     1.994000000     1.980000000
O    -1.197000000     3.134000000     1.668000000
O    -1.861000000     1.616000000     3.012000000
