17
-93.66350
C    -0.923000000    -0.637000000     0.902000000
H    -1.665000000    -1.117000000     1.535000000
C    -0.127000000    -1.307000000     0.051000000
H    -0.390000000    -2.361000000     0.067000000
C     0.708000000    -0.640000000    -0.812000000
C     1.643000000    -1.344000000    -1.720000000
H     1.269000000    -2.355000000    -1.894000000
H     1.649000000    -0.818000000    -2.677000000
H     2.666000000    -1.307000000    -1.340000000
C     0.824000000     0.753000000    -0.646000000
H     1.455000000     1.309000000    -1.335000000
C     0.074000000     1.535000000     0.176000000
H     0.096000000     2.618000000     0.267000000
C    -0.897000000     0.773000000     0.956000000
C    -1.892000000     1.451000000     1.889000000
O    -1.652000000     2.618000000     2.223000000
O    -2.833000000     0.830000000     2.351000000
