17
-97.94270
C     0.576000000     1.342000000     0.236000000
H     1.059000000     2.309000000     0.352000000
C     0.980000000     0.483000000    -0.753000000
H     1.761000000     0.766000000    -1.453000000
C     0.384000000    -0.773000000    -0.835000000
C     0.746000000    -1.736000000    -1.994000000
H     0.928000000    -1.211000000    -2.934000000
H     1.660000000    -2.313000000    -1.834000000
H     0.061000000    -2.563000000    -2.195000000
C    -0.645000000    -1.135000000     0.044000000
H    -1.191000000    -2.075000000     0.038000000
C    -1.081000000    -0.265000000     1.011000000
H    -1.877000000    -0.567000000     1.686000000
C    -0.489000000     1.024000000     1.108000000
C    -0.858000000     1.986000000     2.208000000
O    -1.877000000     1.786000000     2.809000000
O    -0.133000000     2.937000000     2.512000000
