17
-95.87554
C    -0.173000000     1.442000000    -0.289000000
H    -0.165000000     2.446000000    -0.706000000
C     0.469000000     0.569000000    -1.108000000
H     0.965000000     0.887000000    -2.021000000
C     0.536000000    -0.807000000    -0.802000000
C     1.340000000    -1.795000000    -1.527000000
H     0.857000000    -1.924000000    -2.498000000
H     2.367000000    -1.444000000    -1.648000000
H     1.292000000    -2.757000000    -1.013000000
C     0.050000000    -1.230000000     0.474000000
H     0.200000000    -2.251000000     0.816000000
C    -0.588000000    -0.265000000     1.337000000
H    -0.927000000    -0.624000000     2.306000000
C    -0.756000000     1.029000000     0.902000000
C    -1.593000000     1.985000000     1.715000000
O    -2.199000000     1.560000000     2.668000000
O    -1.668000000     3.174000000     1.388000000
