17
-96.81597
C     0.750000000     0.700000000     0.989000000
H     1.342000000     1.357000000     1.621000000
C     1.334000000    -0.050000000     0.010000000
H     2.388000000     0.064000000    -0.233000000
C     0.500000000    -0.785000000    -0.818000000
C     1.094000000    -1.404000000    -2.036000000
H     0.381000000    -1.258000000    -2.850000000
H     2.090000000    -0.990000000    -2.204000000
H     1.253000000    -2.485000000    -2.039000000
C    -0.897000000    -0.732000000    -0.640000000
H    -1.521000000    -1.298000000    -1.327000000
C    -1.423000000     0.104000000     0.292000000
H    -2.484000000     0.188000000     0.511000000
C    -0.658000000     0.754000000     1.186000000
C    -1.232000000     1.691000000     2.238000000
O    -2.432000000     2.018000000     2.183000000
O    -0.489000000     2.124000000     3.117000000
