17
-87.49719
C     0.872000000     0.312000000     1.167000000
H     1.582000000     0.356000000     1.989000000
C     1.288000000    -0.371000000     0.009000000
H     2.243000000    -0.889000000     0.054000000
C     0.342000000    -0.676000000    -1.030000000
C     0.608000000    -1.698000000    -2.109000000
H     0.297000000    -1.167000000    -3.011000000
H     1.694000000    -1.696000000    -2.225000000
H     0.026000000    -2.603000000    -1.924000000
C    -0.911000000    -0.086000000    -0.923000000
H    -1.616000000    -0.159000000    -1.747000000
C    -1.270000000     0.738000000     0.132000000
H    -2.241000000     1.213000000     0.011000000
C    -0.349000000     0.980000000     1.221000000
C    -0.714000000     1.753000000     2.453000000
O    -1.728000000     2.402000000     2.447000000
O    -0.128000000     1.589000000     3.493000000
