17
-94.34211
C    -0.008000000     1.387000000    -0.385000000
H     0.227000000     2.372000000    -0.780000000
C     0.628000000     0.331000000    -1.065000000
H     1.225000000     0.548000000    -1.947000000
C     0.474000000    -0.975000000    -0.665000000
C     1.201000000    -2.061000000    -1.421000000
H     1.970000000    -1.588000000    -2.036000000
H     1.580000000    -2.727000000    -0.643000000
H     0.476000000    -2.565000000    -2.063000000
C    -0.349000000    -1.155000000     0.433000000
H    -0.318000000    -2.160000000     0.846000000
C    -0.967000000    -0.168000000     1.170000000
H    -1.545000000    -0.522000000     2.020000000
C    -0.680000000     1.172000000     0.836000000
C    -1.209000000     2.412000000     1.648000000
O    -2.058000000     2.204000000     2.508000000
O    -0.650000000     3.488000000     1.546000000
