17
-94.71629
C     0.101000000     1.265000000    -0.791000000
H     0.099000000     2.082000000    -1.509000000
C     0.261000000    -0.016000000    -1.270000000
H     0.351000000    -0.211000000    -2.335000000
C     0.116000000    -1.093000000    -0.436000000
C     0.093000000    -2.441000000    -1.051000000
H     1.105000000    -2.742000000    -1.328000000
H    -0.287000000    -3.110000000    -0.276000000
H    -0.537000000    -2.452000000    -1.943000000
C    -0.123000000    -1.011000000     0.867000000
H    -0.247000000    -1.845000000     1.554000000
C    -0.252000000     0.259000000     1.411000000
H    -0.321000000     0.344000000     2.492000000
C    -0.094000000     1.412000000     0.578000000
C    -0.066000000     2.822000000     1.168000000
O    -0.175000000     2.923000000     2.412000000
O    -0.024000000     3.807000000     0.453000000
