17
-95.78593
C     0.436000000     1.306000000     0.526000000
H     0.910000000     2.259000000     0.748000000
C     1.271000000     0.262000000     0.143000000
H     2.350000000     0.370000000     0.223000000
C     0.727000000    -1.002000000    -0.248000000
C     1.608000000    -2.118000000    -0.740000000
H     2.028000000    -1.935000000    -1.731000000
H     2.400000000    -2.198000000     0.007000000
H     1.086000000    -3.074000000    -0.818000000
C    -0.649000000    -1.122000000    -0.253000000
H    -1.118000000    -1.997000000    -0.695000000
C    -1.495000000    -0.086000000     0.163000000
H    -2.543000000    -0.334000000     0.012000000
C    -0.971000000     1.167000000     0.509000000
C    -1.796000000     2.459000000     0.788000000
O    -3.033000000     2.456000000     0.635000000
O    -1.216000000     3.583000000     0.733000000
