17
-90.15652
C     0.376000000     1.405000000    -0.150000000
H     0.814000000     2.400000000    -0.151000000
C     0.659000000     0.432000000    -1.065000000
H     1.290000000     0.689000000    -1.913000000
C     0.279000000    -0.913000000    -0.815000000
C     0.699000000    -1.962000000    -1.758000000
H     1.680000000    -1.658000000    -2.127000000
H     0.799000000    -2.912000000    -1.228000000
H    -0.081000000    -1.921000000    -2.521000000
C    -0.553000000    -1.163000000     0.235000000
H    -0.968000000    -2.167000000     0.262000000
C    -0.974000000    -0.157000000     1.119000000
H    -1.521000000    -0.516000000     1.986000000
C    -0.436000000     1.139000000     0.955000000
C    -0.635000000     2.165000000     2.077000000
O    -1.321000000     1.897000000     3.032000000
O    -0.104000000     3.242000000     2.066000000
