17
-88.40344
C     0.573000000     1.151000000     0.710000000
H     1.090000000     1.953000000     1.231000000
C     1.325000000     0.243000000    -0.105000000
H     2.373000000     0.432000000    -0.321000000
C     0.677000000    -0.775000000    -0.712000000
C     1.408000000    -1.829000000    -1.501000000
H     1.502000000    -1.694000000    -2.580000000
H     2.419000000    -2.040000000    -1.145000000
H     0.850000000    -2.764000000    -1.424000000
C    -0.684000000    -0.936000000    -0.384000000
H    -1.233000000    -1.711000000    -0.913000000
C    -1.378000000    -0.090000000     0.459000000
H    -2.446000000    -0.274000000     0.538000000
C    -0.781000000     1.058000000     0.924000000
C    -1.658000000     2.131000000     1.550000000
O    -2.826000000     1.965000000     1.694000000
O    -1.204000000     3.181000000     1.972000000
