17
-92.13648
C     0.591000000     1.284000000    -0.453000000
H     1.226000000     2.148000000    -0.631000000
C     1.035000000    -0.003000000    -0.794000000
H     1.954000000    -0.123000000    -1.362000000
C     0.403000000    -1.147000000    -0.287000000
C     0.931000000    -2.465000000    -0.557000000
H     1.678000000    -2.775000000     0.177000000
H     0.144000000    -3.184000000    -0.792000000
H     1.523000000    -2.342000000    -1.466000000
C    -0.763000000    -1.074000000     0.447000000
H    -1.254000000    -1.906000000     0.945000000
C    -1.291000000     0.262000000     0.720000000
H    -2.160000000     0.312000000     1.370000000
C    -0.591000000     1.433000000     0.239000000
C    -1.017000000     2.803000000     0.726000000
O    -1.999000000     3.016000000     1.434000000
O    -0.405000000     3.760000000     0.276000000
