17
-97.62572
C     0.015000000     1.267000000    -0.753000000
H    -0.083000000     2.143000000    -1.389000000
C    -0.104000000    -0.042000000    -1.305000000
H    -0.248000000    -0.095000000    -2.381000000
C    -0.063000000    -1.146000000    -0.507000000
C    -0.187000000    -2.508000000    -1.154000000
H    -0.491000000    -3.081000000    -0.276000000
H    -0.918000000    -2.414000000    -1.961000000
H     0.793000000    -2.859000000    -1.483000000
C     0.089000000    -0.985000000     0.882000000
H     0.274000000    -1.894000000     1.448000000
C     0.230000000     0.287000000     1.411000000
H     0.353000000     0.358000000     2.489000000
C     0.060000000     1.447000000     0.640000000
C     0.074000000     2.816000000     1.256000000
O    -0.184000000     2.899000000     2.464000000
O     0.390000000     3.803000000     0.615000000
