17
-98.29797
C     1.135000000    -0.616000000     0.738000000
H     1.966000000    -0.995000000     1.327000000
C    -0.074000000    -0.135000000     1.290000000
H    -0.313000000    -0.239000000     2.345000000
C    -1.086000000     0.398000000     0.478000000
C    -2.252000000     0.980000000     1.170000000
H    -2.979000000     1.294000000     0.418000000
H    -2.758000000     0.200000000     1.744000000
H    -1.946000000     1.821000000     1.797000000
C    -0.879000000     0.498000000    -0.851000000
H    -1.686000000     0.852000000    -1.488000000
C     0.339000000     0.094000000    -1.430000000
H     0.353000000     0.083000000    -2.517000000
C     1.350000000    -0.532000000    -0.696000000
C     2.608000000    -1.111000000    -1.278000000
O     2.746000000    -1.051000000    -2.498000000
O     3.475000000    -1.533000000    -0.543000000
