17
-88.69930
C     0.487000000     1.294000000    -0.677000000
H     0.620000000     2.198000000    -1.266000000
C     0.348000000     0.041000000    -1.311000000
H     0.447000000    -0.012000000    -2.392000000
C    -0.060000000    -1.146000000    -0.591000000
C    -0.382000000    -2.462000000    -1.236000000
H    -1.055000000    -3.004000000    -0.568000000
H    -0.830000000    -2.266000000    -2.213000000
H     0.586000000    -2.948000000    -1.374000000
C    -0.238000000    -0.998000000     0.768000000
H    -0.577000000    -1.843000000     1.361000000
C    -0.154000000     0.280000000     1.448000000
H    -0.360000000     0.248000000     2.515000000
C     0.248000000     1.385000000     0.760000000
C     0.352000000     2.700000000     1.465000000
O    -0.155000000     2.861000000     2.508000000
O     0.721000000     3.664000000     0.807000000
