17
-85.24782
C     0.488000000     1.282000000    -0.494000000
H     0.895000000     2.156000000    -0.997000000
C     0.704000000     0.047000000    -1.120000000
H     1.337000000    -0.036000000    -2.000000000
C     0.106000000    -1.114000000    -0.550000000
C     0.400000000    -2.530000000    -1.112000000
H     0.896000000    -3.187000000    -0.394000000
H    -0.433000000    -3.046000000    -1.593000000
H     1.133000000    -2.512000000    -1.921000000
C    -0.590000000    -0.933000000     0.623000000
H    -0.860000000    -1.790000000     1.235000000
C    -0.860000000     0.307000000     1.186000000
H    -1.420000000     0.405000000     2.112000000
C    -0.266000000     1.445000000     0.648000000
C    -0.421000000     2.803000000     1.296000000
O    -0.988000000     2.907000000     2.331000000
O    -0.120000000     3.803000000     0.749000000
