17
-101.77159
C     0.610000000     1.279000000    -0.563000000
H     1.055000000     2.078000000    -1.150000000
C     1.140000000    -0.025000000    -0.622000000
H     2.096000000    -0.226000000    -1.097000000
C     0.470000000    -1.147000000    -0.154000000
C     1.057000000    -2.552000000    -0.242000000
H     1.965000000    -2.624000000     0.360000000
H     0.306000000    -3.243000000     0.147000000
H     1.209000000    -2.765000000    -1.302000000
C    -0.782000000    -0.944000000     0.375000000
H    -1.409000000    -1.764000000     0.716000000
C    -1.281000000     0.358000000     0.539000000
H    -2.208000000     0.466000000     1.095000000
C    -0.582000000     1.459000000     0.159000000
C    -1.109000000     2.862000000     0.455000000
O    -2.020000000     2.963000000     1.305000000
O    -0.522000000     3.831000000    -0.023000000
