17
-96.74803
C     1.057000000     1.068000000     0.054000000
H     1.922000000     1.726000000     0.058000000
C     0.939000000     0.062000000    -0.898000000
H     1.682000000     0.020000000    -1.690000000
C    -0.060000000    -0.902000000    -0.839000000
C    -0.023000000    -2.119000000    -1.784000000
H    -0.061000000    -1.767000000    -2.817000000
H     0.788000000    -2.818000000    -1.567000000
H    -0.899000000    -2.668000000    -1.434000000
C    -1.099000000    -0.781000000     0.126000000
H    -1.908000000    -1.506000000     0.095000000
C    -0.973000000     0.231000000     1.099000000
H    -1.742000000     0.343000000     1.859000000
C     0.093000000     1.135000000     1.105000000
C     0.094000000     2.358000000     1.962000000
O    -0.809000000     2.433000000     2.764000000
O     0.998000000     3.177000000     1.913000000
