17
-96.70254
C     1.126000000     0.845000000     0.509000000
H     2.073000000     1.286000000     0.809000000
C     0.998000000     0.241000000    -0.756000000
H     1.827000000     0.264000000    -1.459000000
C    -0.149000000    -0.438000000    -1.144000000
C    -0.184000000    -1.128000000    -2.516000000
H     0.333000000    -0.550000000    -3.284000000
H     0.472000000    -2.000000000    -2.503000000
H    -1.160000000    -1.401000000    -2.923000000
C    -1.139000000    -0.523000000    -0.205000000
H    -2.057000000    -1.036000000    -0.483000000
C    -1.019000000    -0.072000000     1.050000000
H    -1.794000000    -0.136000000     1.809000000
C     0.126000000     0.644000000     1.410000000
C     0.191000000     1.180000000     2.843000000
O    -0.871000000     1.227000000     3.493000000
O     1.220000000     1.599000000     3.355000000
