17
-89.44150
C     1.177000000     0.945000000     0.004000000
H     2.114000000     1.496000000     0.000000000
C     0.917000000    -0.033000000    -0.937000000
H     1.587000000    -0.076000000    -1.792000000
C    -0.198000000    -0.848000000    -0.833000000
C    -0.359000000    -2.070000000    -1.700000000
H    -1.383000000    -2.441000000    -1.619000000
H    -0.197000000    -2.006000000    -2.778000000
H     0.254000000    -2.867000000    -1.274000000
C    -1.157000000    -0.579000000     0.133000000
H    -1.943000000    -1.299000000     0.348000000
C    -0.912000000     0.433000000     1.014000000
H    -1.683000000     0.504000000     1.778000000
C     0.195000000     1.246000000     0.939000000
C     0.445000000     2.329000000     1.890000000
O    -0.465000000     2.759000000     2.560000000
O     1.600000000     2.506000000     2.269000000
