17
-99.69083
C     1.214000000     0.867000000     0.131000000
H     2.154000000     1.413000000     0.109000000
C     1.107000000    -0.251000000    -0.653000000
H     1.959000000    -0.567000000    -1.249000000
C    -0.047000000    -1.010000000    -0.699000000
C    -0.165000000    -2.167000000    -1.646000000
H    -1.125000000    -2.669000000    -1.505000000
H    -0.272000000    -1.776000000    -2.660000000
H     0.645000000    -2.890000000    -1.532000000
C    -1.152000000    -0.584000000     0.035000000
H    -2.113000000    -1.093000000     0.055000000
C    -1.077000000     0.469000000     0.938000000
H    -1.881000000     0.879000000     1.544000000
C     0.154000000     1.161000000     0.994000000
C     0.198000000     2.426000000     1.825000000
O    -0.788000000     2.695000000     2.538000000
O     1.186000000     3.094000000     1.768000000
