17
-95.53839
C     0.167000000     0.158000000     1.448000000
H     0.361000000     0.259000000     2.513000000
C     0.633000000    -0.906000000     0.694000000
H     1.193000000    -1.687000000     1.203000000
C     0.524000000    -0.901000000    -0.705000000
C     0.925000000    -2.093000000    -1.512000000
H     0.857000000    -2.014000000    -2.599000000
H     1.938000000    -2.411000000    -1.256000000
H     0.246000000    -2.867000000    -1.147000000
C    -0.084000000     0.185000000    -1.285000000
H    -0.161000000     0.115000000    -2.367000000
C    -0.760000000     1.156000000    -0.560000000
H    -1.378000000     1.918000000    -1.028000000
C    -0.575000000     1.213000000     0.806000000
C    -1.092000000     2.369000000     1.661000000
O    -1.943000000     3.129000000     1.261000000
O    -0.844000000     2.384000000     2.876000000
