17
-85.97042
C     1.246000000     0.216000000     0.738000000
H     2.214000000     0.259000000     1.230000000
C     1.077000000    -0.855000000    -0.121000000
H     1.830000000    -1.614000000    -0.314000000
C    -0.079000000    -0.886000000    -0.922000000
C    -0.589000000    -2.126000000    -1.588000000
H     0.066000000    -2.327000000    -2.438000000
H    -0.449000000    -2.988000000    -0.931000000
H    -1.624000000    -1.970000000    -1.899000000
C    -0.987000000     0.204000000    -0.766000000
H    -1.921000000     0.156000000    -1.320000000
C    -0.919000000     1.127000000     0.259000000
H    -1.614000000     1.963000000     0.292000000
C     0.229000000     1.155000000     1.056000000
C     0.423000000     2.217000000     2.012000000
O    -0.413000000     3.078000000     2.195000000
O     1.509000000     2.384000000     2.524000000
