17
-100.71207
C     1.443000000     0.287000000     0.256000000
H     2.523000000     0.398000000     0.303000000
C     0.854000000    -0.064000000    -0.969000000
H     1.584000000    -0.153000000    -1.769000000
C    -0.504000000    -0.326000000    -1.102000000
C    -1.132000000    -0.873000000    -2.383000000
H    -1.461000000    -1.904000000    -2.243000000
H    -1.951000000    -0.239000000    -2.728000000
H    -0.370000000    -0.882000000    -3.165000000
C    -1.295000000    -0.019000000    -0.003000000
H    -2.336000000    -0.317000000    -0.099000000
C    -0.761000000     0.399000000     1.203000000
H    -1.449000000     0.498000000     2.039000000
C     0.624000000     0.585000000     1.362000000
C     1.256000000     0.811000000     2.727000000
O     0.523000000     0.781000000     3.718000000
O     2.460000000     1.019000000     2.860000000
