17
-94.93652
C     1.103000000    -0.712000000     0.500000000
H     1.905000000    -1.277000000     0.968000000
C    -0.205000000    -0.810000000     0.977000000
H    -0.374000000    -1.504000000     1.796000000
C    -1.200000000     0.015000000     0.474000000
C    -2.564000000    -0.060000000     1.083000000
H    -2.507000000     0.761000000     1.800000000
H    -3.310000000    -0.116000000     0.288000000
H    -2.607000000    -1.003000000     1.632000000
C    -0.863000000     0.772000000    -0.658000000
H    -1.614000000     1.439000000    -1.075000000
C     0.429000000     0.749000000    -1.225000000
H     0.606000000     1.378000000    -2.094000000
C     1.443000000     0.037000000    -0.591000000
C     2.885000000     0.106000000    -1.125000000
O     3.061000000     0.654000000    -2.182000000
O     3.819000000    -0.433000000    -0.568000000
