17
-89.36712
C     0.269000000    -0.326000000     1.411000000
H     0.531000000    -0.700000000     2.397000000
C     0.985000000    -0.786000000     0.301000000
H     1.806000000    -1.485000000     0.440000000
C     0.626000000    -0.407000000    -1.009000000
C     1.505000000    -0.879000000    -2.107000000
H     1.172000000    -0.461000000    -3.059000000
H     2.543000000    -0.593000000    -1.924000000
H     1.348000000    -1.945000000    -2.289000000
C    -0.470000000     0.456000000    -1.190000000
H    -0.845000000     0.611000000    -2.198000000
C    -1.187000000     0.928000000    -0.051000000
H    -2.187000000     1.318000000    -0.221000000
C    -0.772000000     0.561000000     1.264000000
C    -1.509000000     1.178000000     2.432000000
O    -2.595000000     1.743000000     2.296000000
O    -1.217000000     0.792000000     3.507000000
