17
-88.00011
C     1.242000000     0.626000000     0.652000000
H     2.169000000     0.986000000     1.091000000
C     1.130000000     0.014000000    -0.641000000
H     2.019000000     0.053000000    -1.265000000
C    -0.041000000    -0.474000000    -1.161000000
C    -0.165000000    -1.144000000    -2.546000000
H     0.622000000    -0.810000000    -3.226000000
H     0.006000000    -2.209000000    -2.377000000
H    -1.154000000    -1.063000000    -3.001000000
C    -1.146000000    -0.425000000    -0.374000000
H    -2.077000000    -0.798000000    -0.793000000
C    -1.097000000     0.139000000     0.909000000
H    -2.039000000     0.098000000     1.450000000
C     0.118000000     0.677000000     1.454000000
C     0.145000000     1.215000000     2.899000000
O    -0.875000000     1.512000000     3.477000000
O     1.150000000     1.599000000     3.445000000
