17
-92.42001
C     1.215000000     0.884000000    -0.513000000
H     2.163000000     1.391000000    -0.671000000
C     1.161000000    -0.579000000    -0.400000000
H     2.045000000    -1.186000000    -0.580000000
C    -0.028000000    -1.242000000    -0.052000000
C    -0.024000000    -2.736000000     0.218000000
H    -0.297000000    -3.185000000    -0.739000000
H     0.912000000    -3.148000000     0.600000000
H    -0.799000000    -3.001000000     0.940000000
C    -1.241000000    -0.534000000     0.225000000
H    -2.150000000    -1.009000000     0.586000000
C    -1.160000000     0.857000000     0.170000000
H    -2.054000000     1.416000000     0.436000000
C     0.021000000     1.545000000    -0.127000000
C     0.017000000     3.111000000    -0.140000000
O    -0.838000000     3.734000000     0.480000000
O     1.049000000     3.675000000    -0.426000000
