17
-93.15072
C     0.734000000     0.472000000     1.166000000
H     1.251000000     0.660000000     2.103000000
C     1.178000000    -0.530000000     0.325000000
H     2.105000000    -1.061000000     0.528000000
C     0.380000000    -0.900000000    -0.776000000
C     0.651000000    -2.168000000    -1.576000000
H     0.188000000    -2.190000000    -2.565000000
H     1.728000000    -2.067000000    -1.725000000
H     0.575000000    -3.024000000    -0.902000000
C    -0.875000000    -0.306000000    -1.001000000
H    -1.563000000    -0.599000000    -1.791000000
C    -1.228000000     0.839000000    -0.226000000
H    -2.219000000     1.266000000    -0.363000000
C    -0.374000000     1.290000000     0.818000000
C    -0.748000000     2.484000000     1.734000000
O    -1.774000000     3.062000000     1.567000000
O    -0.012000000     2.764000000     2.683000000
