17
-90.16303
C     1.253000000     0.801000000     0.210000000
H     2.187000000     1.322000000     0.014000000
C     1.213000000    -0.521000000    -0.210000000
H     2.169000000    -0.999000000    -0.406000000
C     0.032000000    -1.216000000    -0.320000000
C    -0.118000000    -2.663000000    -0.656000000
H    -0.868000000    -2.931000000    -1.402000000
H     0.841000000    -3.184000000    -0.711000000
H    -0.514000000    -3.041000000     0.289000000
C    -1.173000000    -0.519000000    -0.059000000
H    -2.184000000    -0.917000000    -0.053000000
C    -1.173000000     0.887000000     0.306000000
H    -2.053000000     1.299000000     0.794000000
C     0.053000000     1.520000000     0.326000000
C     0.114000000     3.022000000     0.503000000
O    -0.890000000     3.704000000     0.237000000
O     1.114000000     3.434000000     1.136000000
