17
-96.69789
C    -0.338000000     0.055000000     1.481000000
H    -0.649000000    -0.045000000     2.518000000
C     0.129000000    -1.068000000     0.781000000
H     0.283000000    -2.037000000     1.247000000
C     0.348000000    -0.960000000    -0.601000000
C     0.561000000    -2.234000000    -1.356000000
H     1.342000000    -2.861000000    -0.921000000
H    -0.389000000    -2.772000000    -1.375000000
H     0.910000000    -1.937000000    -2.347000000
C     0.336000000     0.238000000    -1.282000000
H     0.708000000     0.304000000    -2.301000000
C    -0.032000000     1.377000000    -0.581000000
H    -0.069000000     2.304000000    -1.147000000
C    -0.290000000     1.311000000     0.812000000
C    -0.895000000     2.470000000     1.516000000
O    -1.029000000     3.472000000     0.822000000
O    -0.928000000     2.375000000     2.739000000
