17
-100.27110
C     0.461000000     0.860000000     1.082000000
H     0.922000000     1.397000000     1.907000000
C     0.995000000    -0.366000000     0.673000000
H     1.847000000    -0.770000000     1.213000000
C     0.501000000    -1.036000000    -0.415000000
C     1.231000000    -2.307000000    -0.890000000
H     1.822000000    -2.843000000    -0.144000000
H     0.469000000    -3.007000000    -1.239000000
H     1.990000000    -2.054000000    -1.633000000
C    -0.583000000    -0.519000000    -1.121000000
H    -0.948000000    -1.034000000    -2.006000000
C    -1.216000000     0.636000000    -0.612000000
H    -2.112000000     1.043000000    -1.075000000
C    -0.710000000     1.352000000     0.457000000
C    -1.429000000     2.544000000     1.143000000
O    -2.437000000     2.962000000     0.638000000
O    -0.808000000     3.141000000     2.018000000
