17
-90.35048
C    -0.932000000     0.342000000     1.044000000
H    -1.530000000     0.514000000     1.935000000
C    -0.725000000    -0.885000000     0.502000000
H    -1.268000000    -1.730000000     0.917000000
C     0.190000000    -1.129000000    -0.457000000
C     0.127000000    -2.504000000    -1.036000000
H    -0.075000000    -3.325000000    -0.344000000
H    -0.655000000    -2.595000000    -1.793000000
H     1.033000000    -2.706000000    -1.611000000
C     1.064000000    -0.091000000    -0.865000000
H     1.857000000    -0.316000000    -1.573000000
C     0.909000000     1.215000000    -0.292000000
H     1.603000000     1.990000000    -0.609000000
C    -0.143000000     1.451000000     0.607000000
C    -0.409000000     2.875000000     1.041000000
O     0.182000000     3.794000000     0.592000000
O    -1.226000000     3.101000000     1.949000000
