17
-92.34248
C     1.044000000     0.760000000     0.682000000
H     1.664000000     1.368000000     1.336000000
C     0.142000000    -0.060000000     1.282000000
H     0.197000000    -0.164000000     2.362000000
C    -0.845000000    -0.736000000     0.551000000
C    -1.747000000    -1.660000000     1.319000000
H    -1.508000000    -1.705000000     2.384000000
H    -2.784000000    -1.319000000     1.338000000
H    -1.626000000    -2.682000000     0.955000000
C    -0.853000000    -0.590000000    -0.869000000
H    -1.590000000    -1.144000000    -1.444000000
C     0.122000000     0.197000000    -1.522000000
H     0.002000000     0.228000000    -2.602000000
C     1.135000000     0.866000000    -0.784000000
C     2.041000000     1.881000000    -1.471000000
O     1.973000000     2.061000000    -2.697000000
O     2.641000000     2.703000000    -0.822000000
