17
-94.00967
C    -1.223000000     0.270000000     0.837000000
H    -2.085000000     0.385000000     1.489000000
C    -0.792000000    -0.966000000     0.464000000
H    -1.237000000    -1.919000000     0.737000000
C     0.327000000    -1.122000000    -0.308000000
C     0.866000000    -2.543000000    -0.772000000
H     0.166000000    -3.180000000    -1.316000000
H     1.741000000    -2.462000000    -1.421000000
H     1.115000000    -3.070000000     0.151000000
C     1.110000000     0.014000000    -0.705000000
H     2.097000000    -0.006000000    -1.160000000
C     0.608000000     1.296000000    -0.383000000
H     1.179000000     2.180000000    -0.655000000
C    -0.563000000     1.434000000     0.381000000
C    -0.953000000     2.865000000     0.821000000
O    -0.475000000     3.796000000     0.229000000
O    -1.880000000     3.025000000     1.603000000
