17
-94.39880
C     0.687000000     1.248000000     0.265000000
H     1.392000000     2.058000000     0.441000000
C     0.348000000     0.383000000     1.293000000
H     0.745000000     0.551000000     2.291000000
C    -0.367000000    -0.723000000     0.890000000
C    -0.765000000    -1.755000000     1.878000000
H    -1.718000000    -1.507000000     2.352000000
H    -1.020000000    -2.676000000     1.350000000
H    -0.025000000    -1.832000000     2.677000000
C    -0.740000000    -0.913000000    -0.403000000
H    -1.288000000    -1.821000000    -0.639000000
C    -0.365000000    -0.103000000    -1.420000000
H    -0.647000000    -0.142000000    -2.469000000
C     0.442000000     0.942000000    -1.065000000
C     0.930000000     1.894000000    -2.185000000
O     0.882000000     1.474000000    -3.374000000
O     1.501000000     2.919000000    -1.876000000
