17
-91.18693
C     0.843000000    -1.051000000     0.580000000
H     1.411000000    -1.788000000     1.142000000
C    -0.535000000    -0.908000000     0.775000000
H    -1.046000000    -1.641000000     1.394000000
C    -1.286000000     0.080000000     0.071000000
C    -2.692000000     0.388000000     0.479000000
H    -2.794000000     0.608000000     1.544000000
H    -2.967000000     1.242000000    -0.144000000
H    -3.409000000    -0.424000000     0.340000000
C    -0.517000000     0.988000000    -0.650000000
H    -0.933000000     1.923000000    -1.018000000
C     0.838000000     0.820000000    -0.917000000
H     1.339000000     1.556000000    -1.542000000
C     1.533000000    -0.213000000    -0.309000000
C     3.022000000    -0.457000000    -0.550000000
O     3.752000000     0.429000000    -0.858000000
O     3.448000000    -1.544000000    -0.342000000
