17
-98.48242
C     0.805000000     1.026000000     0.618000000
H     1.268000000     1.867000000     1.129000000
C    -0.051000000     0.188000000     1.359000000
H    -0.224000000     0.362000000     2.418000000
C    -0.720000000    -0.766000000     0.569000000
C    -1.803000000    -1.661000000     1.252000000
H    -1.490000000    -2.703000000     1.347000000
H    -2.158000000    -1.329000000     2.230000000
H    -2.667000000    -1.681000000     0.583000000
C    -0.497000000    -0.893000000    -0.813000000
H    -1.079000000    -1.625000000    -1.368000000
C     0.388000000    -0.036000000    -1.447000000
H     0.634000000    -0.189000000    -2.495000000
C     1.052000000     0.904000000    -0.756000000
C     1.950000000     1.897000000    -1.381000000
O     2.202000000     1.847000000    -2.583000000
O     2.395000000     2.784000000    -0.664000000
