17
-93.90620
C     0.532000000     1.378000000     0.127000000
H     1.036000000     2.307000000     0.378000000
C    -0.288000000     0.749000000     1.066000000
H    -0.560000000     1.224000000     2.005000000
C    -0.718000000    -0.567000000     0.872000000
C    -1.545000000    -1.331000000     1.864000000
H    -2.023000000    -2.189000000     1.385000000
H    -0.911000000    -1.666000000     2.687000000
H    -2.351000000    -0.692000000     2.232000000
C    -0.553000000    -1.080000000    -0.423000000
H    -1.001000000    -2.051000000    -0.619000000
C     0.296000000    -0.446000000    -1.364000000
H     0.571000000    -0.945000000    -2.290000000
C     0.881000000     0.759000000    -1.080000000
C     1.892000000     1.368000000    -2.049000000
O     2.300000000     0.758000000    -2.991000000
O     2.439000000     2.422000000    -1.801000000
