17
-94.76626
C     1.023000000     1.019000000    -0.307000000
H     1.781000000     1.784000000    -0.451000000
C    -0.220000000     1.261000000     0.251000000
H    -0.512000000     2.293000000     0.430000000
C    -1.078000000     0.217000000     0.485000000
C    -2.369000000     0.515000000     1.104000000
H    -3.063000000    -0.316000000     0.960000000
H    -2.415000000     0.789000000     2.160000000
H    -2.822000000     1.395000000     0.644000000
C    -0.744000000    -1.075000000     0.184000000
H    -1.493000000    -1.862000000     0.218000000
C     0.495000000    -1.355000000    -0.375000000
H     0.752000000    -2.359000000    -0.702000000
C     1.388000000    -0.324000000    -0.617000000
C     2.718000000    -0.582000000    -1.157000000
O     3.046000000    -1.705000000    -1.542000000
O     3.510000000     0.313000000    -1.291000000
