17
-88.75357
C     0.516000000     1.325000000    -0.232000000
H     0.781000000     2.378000000    -0.189000000
C    -0.402000000     0.987000000     0.757000000
H    -0.724000000     1.759000000     1.451000000
C    -0.884000000    -0.299000000     0.871000000
C    -1.680000000    -0.753000000     2.036000000
H    -0.949000000    -1.292000000     2.642000000
H    -2.220000000    -0.040000000     2.662000000
H    -2.448000000    -1.510000000     1.867000000
C    -0.483000000    -1.200000000    -0.162000000
H    -0.750000000    -2.253000000    -0.147000000
C     0.474000000    -0.872000000    -1.105000000
H     0.893000000    -1.603000000    -1.791000000
C     1.002000000     0.443000000    -1.161000000
C     2.033000000     0.849000000    -2.218000000
O     2.216000000     0.166000000    -3.141000000
O     2.626000000     1.911000000    -2.141000000
