17
-96.57337
C    -0.216000000     1.486000000     0.009000000
H    -0.332000000     2.562000000     0.111000000
C    -0.624000000     0.614000000     1.014000000
H    -1.162000000     0.906000000     1.912000000
C    -0.492000000    -0.722000000     0.807000000
C    -1.055000000    -1.693000000     1.800000000
H    -1.290000000    -1.084000000     2.676000000
H    -1.954000000    -2.182000000     1.419000000
H    -0.320000000    -2.469000000     2.024000000
C     0.251000000    -1.283000000    -0.247000000
H     0.383000000    -2.357000000    -0.355000000
C     0.790000000    -0.418000000    -1.202000000
H     1.404000000    -0.781000000    -2.023000000
C     0.484000000     0.958000000    -1.106000000
C     1.129000000     1.899000000    -2.065000000
O     1.753000000     1.438000000    -2.984000000
O     1.244000000     3.118000000    -1.791000000
