17
-96.81278
C     0.786000000     1.257000000     0.128000000
H     1.379000000     2.118000000     0.424000000
C     0.476000000     0.275000000     1.118000000
H     0.890000000     0.504000000     2.097000000
C    -0.238000000    -0.871000000     0.855000000
C    -0.521000000    -1.747000000     2.069000000
H    -1.230000000    -2.539000000     1.818000000
H     0.442000000    -2.105000000     2.439000000
H    -0.951000000    -1.204000000     2.913000000
C    -0.778000000    -1.076000000    -0.444000000
H    -1.432000000    -1.923000000    -0.634000000
C    -0.422000000    -0.140000000    -1.425000000
H    -0.959000000    -0.246000000    -2.364000000
C     0.374000000     1.012000000    -1.205000000
C     0.661000000     1.985000000    -2.283000000
O     0.196000000     1.726000000    -3.383000000
O     1.334000000     2.981000000    -2.121000000
