17
-85.09448
C     0.105000000     0.097000000    -1.420000000
H    -0.122000000     0.197000000    -2.479000000
C    -0.119000000     1.115000000    -0.615000000
H    -0.326000000     2.099000000    -1.028000000
C    -0.076000000     0.935000000     0.772000000
C    -0.300000000     2.146000000     1.603000000
H    -0.648000000     1.878000000     2.603000000
H     0.605000000     2.756000000     1.646000000
H    -1.110000000     2.723000000     1.152000000
C     0.163000000    -0.275000000     1.291000000
H     0.242000000    -0.506000000     2.351000000
C     0.243000000    -1.386000000     0.455000000
H     0.324000000    -2.403000000     0.830000000
C     0.226000000    -1.191000000    -0.932000000
C     0.154000000    -2.424000000    -1.824000000
O     0.188000000    -3.545000000    -1.420000000
O     0.444000000    -2.208000000    -2.984000000
