17
-87.36178
C     0.518000000     0.898000000    -1.096000000
H     1.004000000     1.634000000    -1.731000000
C    -0.418000000     1.224000000    -0.140000000
H    -0.827000000     2.230000000    -0.169000000
C    -0.854000000     0.306000000     0.829000000
C    -1.754000000     0.748000000     1.921000000
H    -2.019000000     1.805000000     1.856000000
H    -2.662000000     0.147000000     2.002000000
H    -1.128000000     0.681000000     2.814000000
C    -0.390000000    -0.974000000     0.793000000
H    -0.828000000    -1.716000000     1.456000000
C     0.540000000    -1.313000000    -0.134000000
H     0.942000000    -2.322000000    -0.175000000
C     1.007000000    -0.377000000    -1.080000000
C     2.025000000    -0.870000000    -2.066000000
O     2.414000000    -1.979000000    -2.144000000
O     2.431000000    -0.121000000    -2.937000000
