17
-95.53716
C    -0.469000000    -0.418000000    -1.398000000
H    -0.767000000    -0.542000000    -2.436000000
C    -0.481000000     0.893000000    -0.831000000
H    -0.721000000     1.712000000    -1.504000000
C    -0.020000000     1.150000000     0.456000000
C     0.190000000     2.544000000     1.024000000
H     0.076000000     2.609000000     2.108000000
H     1.247000000     2.809000000     0.951000000
H    -0.321000000     3.363000000     0.513000000
C     0.220000000     0.086000000     1.217000000
H     0.503000000     0.309000000     2.242000000
C     0.141000000    -1.213000000     0.742000000
H     0.456000000    -2.036000000     1.378000000
C    -0.081000000    -1.512000000    -0.617000000
C    -0.035000000    -2.891000000    -1.156000000
O     0.331000000    -3.796000000    -0.366000000
O    -0.270000000    -3.072000000    -2.328000000
