17
-94.92111
C     0.806000000    -0.511000000    -1.203000000
H     1.443000000    -0.688000000    -2.065000000
C     0.850000000     0.792000000    -0.582000000
H     1.562000000     1.549000000    -0.898000000
C     0.049000000     1.099000000     0.502000000
C     0.282000000     2.476000000     1.181000000
H     0.217000000     2.225000000     2.242000000
H     1.256000000     2.888000000     0.909000000
H    -0.583000000     3.099000000     0.942000000
C    -0.876000000     0.224000000     0.957000000
H    -1.444000000     0.497000000     1.843000000
C    -0.865000000    -1.088000000     0.423000000
H    -1.501000000    -1.825000000     0.904000000
C    -0.054000000    -1.424000000    -0.641000000
C    -0.359000000    -2.777000000    -1.342000000
O    -0.370000000    -3.745000000    -0.619000000
O    -0.411000000    -2.794000000    -2.548000000
