17
-89.96406
C     0.649000000    -1.308000000    -0.252000000
H     1.405000000    -2.078000000    -0.383000000
C     0.847000000    -0.393000000     0.730000000
H     1.771000000    -0.529000000     1.287000000
C     0.219000000     0.806000000     0.903000000
C     0.710000000     1.736000000     2.061000000
H     0.261000000     2.706000000     1.835000000
H     0.530000000     1.285000000     3.039000000
H     1.776000000     1.935000000     1.934000000
C    -0.932000000     1.003000000     0.156000000
H    -1.595000000     1.841000000     0.355000000
C    -1.210000000     0.152000000    -0.951000000
H    -2.048000000     0.421000000    -1.588000000
C    -0.391000000    -0.967000000    -1.206000000
C    -0.587000000    -1.924000000    -2.331000000
O    -1.568000000    -1.794000000    -3.115000000
O     0.158000000    -2.899000000    -2.481000000
