17
-99.68479
C     0.387000000    -1.371000000    -0.379000000
H     0.798000000    -2.334000000    -0.673000000
C     0.951000000    -0.602000000     0.648000000
H     1.733000000    -1.098000000     1.217000000
C     0.496000000     0.685000000     0.932000000
C     1.045000000     1.476000000     2.062000000
H     0.224000000     1.829000000     2.689000000
H     1.779000000     0.937000000     2.664000000
H     1.582000000     2.379000000     1.761000000
C    -0.460000000     1.219000000     0.083000000
H    -0.740000000     2.243000000     0.317000000
C    -0.994000000     0.481000000    -0.994000000
H    -1.664000000     0.872000000    -1.756000000
C    -0.627000000    -0.814000000    -1.213000000
C    -1.309000000    -1.717000000    -2.237000000
O    -2.364000000    -1.369000000    -2.697000000
O    -0.830000000    -2.819000000    -2.428000000
