17
-89.47397
C     0.346000000    -1.380000000    -0.367000000
H     0.760000000    -2.381000000    -0.454000000
C     1.175000000    -0.436000000     0.156000000
H     2.160000000    -0.698000000     0.535000000
C     0.767000000     0.887000000     0.336000000
C     1.732000000     1.911000000     0.966000000
H     2.632000000     2.034000000     0.359000000
H     1.301000000     2.914000000     0.983000000
H     1.989000000     1.631000000     1.990000000
C    -0.539000000     1.238000000    -0.038000000
H    -0.731000000     2.308000000    -0.070000000
C    -1.478000000     0.249000000    -0.452000000
H    -2.526000000     0.531000000    -0.505000000
C    -1.019000000    -1.136000000    -0.560000000
C    -1.968000000    -2.270000000    -0.780000000
O    -3.132000000    -2.071000000    -0.954000000
O    -1.465000000    -3.332000000    -1.140000000
