17
-100.65579
C     0.787000000    -1.188000000    -0.211000000
H     1.406000000    -2.070000000    -0.357000000
C     1.206000000    -0.089000000     0.510000000
H     2.131000000    -0.073000000     1.081000000
C     0.359000000     0.990000000     0.629000000
C     0.721000000     2.166000000     1.477000000
H     0.068000000     3.026000000     1.313000000
H     0.696000000     1.928000000     2.542000000
H     1.781000000     2.358000000     1.298000000
C    -0.915000000     0.991000000     0.004000000
H    -1.631000000     1.765000000     0.267000000
C    -1.291000000    -0.116000000    -0.824000000
H    -2.257000000    -0.101000000    -1.322000000
C    -0.426000000    -1.154000000    -0.897000000
C    -0.789000000    -2.481000000    -1.698000000
O    -1.915000000    -2.596000000    -2.114000000
O     0.065000000    -3.349000000    -1.693000000
