17
-95.90837
C     1.053000000    -0.536000000     0.875000000
H     1.781000000    -0.966000000     1.559000000
C    -0.284000000    -0.467000000     1.214000000
H    -0.569000000    -0.685000000     2.241000000
C    -1.202000000     0.117000000     0.350000000
C    -2.590000000     0.517000000     0.733000000
H    -3.074000000     1.305000000     0.152000000
H    -3.163000000    -0.391000000     0.534000000
H    -2.526000000     0.666000000     1.812000000
C    -0.764000000     0.496000000    -0.889000000
H    -1.412000000     0.968000000    -1.623000000
C     0.541000000     0.274000000    -1.283000000
H     0.913000000     0.656000000    -2.230000000
C     1.482000000    -0.301000000    -0.419000000
C     2.909000000    -0.503000000    -0.900000000
O     3.119000000    -0.482000000    -2.076000000
O     3.778000000    -0.669000000    -0.049000000
