17
-93.30047
C     1.251000000    -0.501000000    -0.439000000
H     2.241000000    -0.888000000    -0.668000000
C     0.887000000    -0.174000000     0.850000000
H     1.689000000    -0.216000000     1.583000000
C    -0.341000000     0.367000000     1.138000000
C    -0.562000000     0.634000000     2.592000000
H    -1.076000000    -0.231000000     3.018000000
H     0.338000000     0.881000000     3.159000000
H    -1.312000000     1.423000000     2.678000000
C    -1.188000000     0.630000000     0.080000000
H    -2.205000000     0.915000000     0.338000000
C    -0.885000000     0.239000000    -1.237000000
H    -1.579000000     0.437000000    -2.050000000
C     0.324000000    -0.479000000    -1.456000000
C     0.711000000    -0.872000000    -2.843000000
O     0.069000000    -0.512000000    -3.809000000
O     1.631000000    -1.648000000    -2.935000000
