17
-91.91406
C     0.491000000    -0.772000000     1.184000000
H     0.788000000    -1.379000000     2.035000000
C    -0.625000000    -0.011000000     1.158000000
H    -1.317000000    -0.084000000     1.993000000
C    -1.039000000     0.730000000     0.058000000
C    -2.316000000     1.432000000    -0.079000000
H    -2.862000000     0.907000000    -0.866000000
H    -2.809000000     1.523000000     0.891000000
H    -2.039000000     2.450000000    -0.361000000
C    -0.246000000     0.649000000    -1.103000000
H    -0.507000000     1.170000000    -2.021000000
C     0.916000000    -0.141000000    -1.051000000
H     1.333000000    -0.356000000    -2.032000000
C     1.367000000    -0.755000000     0.088000000
C     2.640000000    -1.513000000     0.050000000
O     3.177000000    -1.815000000    -1.017000000
O     3.048000000    -2.039000000     1.072000000
