17
-96.58862
C     0.832000000     1.206000000    -0.318000000
H     1.329000000     2.055000000    -0.780000000
C    -0.282000000     1.280000000     0.502000000
H    -0.613000000     2.267000000     0.816000000
C    -0.982000000     0.087000000     0.827000000
C    -2.286000000     0.025000000     1.575000000
H    -2.112000000    -0.539000000     2.494000000
H    -2.671000000     1.039000000     1.699000000
H    -3.034000000    -0.384000000     0.893000000
C    -0.382000000    -1.133000000     0.352000000
H    -0.814000000    -2.089000000     0.640000000
C     0.734000000    -1.220000000    -0.439000000
H     1.170000000    -2.140000000    -0.821000000
C     1.364000000    -0.003000000    -0.812000000
C     2.394000000    -0.136000000    -1.886000000
O     2.576000000    -1.239000000    -2.382000000
O     2.782000000     0.929000000    -2.364000000
