17
-95.31317
C     0.430000000     1.238000000    -0.692000000
H     0.732000000     2.180000000    -1.144000000
C    -0.034000000     1.225000000     0.654000000
H     0.021000000     2.079000000     1.323000000
C    -0.519000000    -0.050000000     1.077000000
C    -1.051000000    -0.194000000     2.475000000
H    -0.483000000    -0.934000000     3.044000000
H    -1.028000000     0.752000000     3.019000000
H    -2.078000000    -0.555000000     2.396000000
C    -0.452000000    -1.193000000     0.306000000
H    -0.838000000    -2.139000000     0.677000000
C     0.108000000    -1.104000000    -0.938000000
H     0.233000000    -1.963000000    -1.592000000
C     0.517000000     0.052000000    -1.442000000
C     1.252000000     0.155000000    -2.743000000
O     1.635000000    -0.833000000    -3.300000000
O     1.552000000     1.282000000    -3.115000000
