17
-91.00570
C     0.610000000    -0.384000000     1.207000000
H     0.994000000    -0.590000000     2.203000000
C    -0.612000000     0.253000000     1.025000000
H    -1.060000000     0.740000000     1.888000000
C    -1.140000000     0.416000000    -0.205000000
C    -2.550000000     1.062000000    -0.207000000
H    -2.411000000     2.029000000     0.282000000
H    -3.045000000     1.074000000    -1.180000000
H    -3.230000000     0.555000000     0.481000000
C    -0.392000000    -0.081000000    -1.302000000
H    -0.857000000     0.005000000    -2.281000000
C     0.934000000    -0.497000000    -1.142000000
H     1.522000000    -0.870000000    -1.977000000
C     1.434000000    -0.612000000     0.107000000
C     2.911000000    -0.920000000     0.302000000
O     3.724000000    -0.816000000    -0.591000000
O     3.171000000    -1.357000000     1.395000000
