17
-91.63306
C     0.744000000     1.052000000    -0.684000000
H     1.311000000     1.923000000    -1.003000000
C    -0.050000000     1.167000000     0.444000000
H    -0.128000000     2.121000000     0.958000000
C    -0.724000000     0.118000000     0.993000000
C    -1.362000000     0.279000000     2.395000000
H    -2.326000000     0.682000000     2.078000000
H    -1.459000000    -0.686000000     2.896000000
H    -0.799000000     0.971000000     3.026000000
C    -0.702000000    -1.098000000     0.305000000
H    -1.299000000    -1.912000000     0.708000000
C     0.031000000    -1.240000000    -0.864000000
H    -0.091000000    -2.116000000    -1.496000000
C     0.904000000    -0.207000000    -1.302000000
C     1.744000000    -0.338000000    -2.509000000
O     2.053000000    -1.407000000    -2.888000000
O     2.154000000     0.689000000    -3.053000000
