17
-86.12373
C     0.591000000     1.345000000    -0.149000000
H     1.062000000     2.318000000    -0.043000000
C    -0.417000000     1.068000000     0.669000000
H    -0.929000000     1.785000000     1.306000000
C    -0.971000000    -0.184000000     0.632000000
C    -2.263000000    -0.596000000     1.429000000
H    -2.587000000     0.280000000     1.996000000
H    -3.082000000    -0.813000000     0.741000000
H    -1.947000000    -1.342000000     2.162000000
C    -0.417000000    -1.155000000    -0.149000000
H    -0.744000000    -2.190000000    -0.106000000
C     0.685000000    -0.896000000    -0.913000000
H     1.123000000    -1.687000000    -1.517000000
C     1.211000000     0.378000000    -0.912000000
C     2.514000000     0.539000000    -1.597000000
O     3.120000000    -0.448000000    -2.048000000
O     3.045000000     1.596000000    -1.504000000
