17
-95.19359
C     0.823000000    -0.572000000     1.044000000
H     1.363000000    -1.034000000     1.866000000
C    -0.596000000    -0.424000000     1.099000000
H    -1.147000000    -0.691000000     1.998000000
C    -1.195000000     0.221000000     0.078000000
C    -2.662000000     0.504000000     0.173000000
H    -2.950000000     0.652000000     1.216000000
H    -3.002000000     1.396000000    -0.358000000
H    -3.231000000    -0.339000000    -0.223000000
C    -0.438000000     0.723000000    -1.006000000
H    -0.823000000     1.325000000    -1.825000000
C     0.902000000     0.345000000    -1.126000000
H     1.327000000     0.583000000    -2.097000000
C     1.546000000    -0.358000000    -0.108000000
C     2.996000000    -0.684000000    -0.193000000
O     3.617000000    -0.158000000    -1.099000000
O     3.472000000    -1.481000000     0.558000000
