17
-98.62939
C     1.379000000    -0.201000000    -0.425000000
H     2.436000000    -0.402000000    -0.576000000
C     0.606000000    -1.079000000     0.290000000
H     1.008000000    -2.086000000     0.370000000
C    -0.703000000    -0.756000000     0.639000000
C    -1.445000000    -1.809000000     1.467000000
H    -2.392000000    -1.367000000     1.783000000
H    -1.657000000    -2.667000000     0.827000000
H    -0.758000000    -2.126000000     2.255000000
C    -1.270000000     0.456000000     0.306000000
H    -2.248000000     0.785000000     0.649000000
C    -0.516000000     1.337000000    -0.512000000
H    -0.937000000     2.304000000    -0.775000000
C     0.808000000     1.015000000    -0.808000000
C     1.643000000     1.985000000    -1.579000000
O     1.183000000     2.909000000    -2.225000000
O     2.866000000     1.705000000    -1.693000000
