17
-97.85106
C     1.261000000    -0.567000000    -0.369000000
H     2.230000000    -1.034000000    -0.529000000
C     0.417000000    -1.109000000     0.567000000
H     0.643000000    -2.032000000     1.094000000
C    -0.719000000    -0.430000000     0.877000000
C    -1.709000000    -0.936000000     1.893000000
H    -1.660000000    -0.351000000     2.814000000
H    -2.680000000    -0.730000000     1.438000000
H    -1.464000000    -1.929000000     2.275000000
C    -1.124000000     0.670000000     0.122000000
H    -2.107000000     1.087000000     0.326000000
C    -0.277000000     1.225000000    -0.862000000
H    -0.542000000     2.161000000    -1.347000000
C     0.959000000     0.585000000    -1.131000000
C     2.000000000     1.047000000    -2.120000000
O     1.799000000     2.014000000    -2.826000000
O     2.978000000     0.321000000    -2.226000000
