17
-94.27495
C     1.161000000    -0.584000000    -0.795000000
H     2.050000000    -1.080000000    -1.177000000
C     0.521000000    -1.142000000     0.290000000
H     0.895000000    -2.074000000     0.708000000
C    -0.485000000    -0.532000000     0.975000000
C    -1.075000000    -1.042000000     2.286000000
H    -0.438000000    -0.844000000     3.150000000
H    -2.018000000    -0.571000000     2.573000000
H    -1.260000000    -2.115000000     2.197000000
C    -0.991000000     0.625000000     0.405000000
H    -1.794000000     1.128000000     0.938000000
C    -0.481000000     1.181000000    -0.738000000
H    -0.980000000     2.111000000    -0.997000000
C     0.607000000     0.524000000    -1.347000000
C     1.266000000     1.307000000    -2.500000000
O     0.613000000     2.095000000    -3.152000000
O     2.408000000     1.018000000    -2.821000000
