17
-89.86146
C     0.536000000    -0.871000000     1.104000000
H     0.829000000    -1.484000000     1.953000000
C    -0.805000000    -0.565000000     0.857000000
H    -1.566000000    -1.095000000     1.424000000
C    -1.177000000     0.298000000    -0.121000000
C    -2.610000000     0.598000000    -0.350000000
H    -2.943000000     1.632000000    -0.461000000
H    -2.775000000     0.136000000    -1.325000000
H    -3.353000000    -0.011000000     0.171000000
C    -0.231000000     0.948000000    -0.927000000
H    -0.601000000     1.627000000    -1.692000000
C     1.086000000     0.427000000    -0.870000000
H     1.850000000     0.713000000    -1.587000000
C     1.512000000    -0.336000000     0.278000000
C     3.032000000    -0.517000000     0.515000000
O     3.861000000    -0.036000000    -0.236000000
O     3.352000000    -1.465000000     1.262000000
