17
-91.25199
C     1.447000000    -0.531000000     0.169000000
H     2.389000000    -1.047000000     0.335000000
C     0.445000000    -0.651000000     1.111000000
H     0.644000000    -1.099000000     2.081000000
C    -0.851000000    -0.045000000     0.870000000
C    -1.968000000    -0.144000000     1.869000000
H    -2.565000000     0.753000000     2.045000000
H    -2.568000000    -1.013000000     1.591000000
H    -1.496000000    -0.245000000     2.848000000
C    -1.162000000     0.389000000    -0.391000000
H    -2.137000000     0.660000000    -0.790000000
C    -0.153000000     0.424000000    -1.364000000
H    -0.333000000     0.843000000    -2.351000000
C     1.121000000     0.004000000    -1.060000000
C     2.116000000     0.435000000    -2.084000000
O     1.779000000     0.631000000    -3.198000000
O     3.296000000     0.635000000    -1.689000000
