17
-94.25650
C     1.120000000     1.021000000     0.204000000
H     1.879000000     1.719000000     0.549000000
C    -0.048000000     0.887000000     0.984000000
H    -0.238000000     1.608000000     1.775000000
C    -1.013000000    -0.072000000     0.657000000
C    -2.282000000    -0.217000000     1.501000000
H    -2.865000000     0.707000000     1.487000000
H    -2.936000000    -1.022000000     1.160000000
H    -2.096000000    -0.550000000     2.524000000
C    -0.836000000    -0.930000000    -0.441000000
H    -1.667000000    -1.604000000    -0.628000000
C     0.390000000    -0.848000000    -1.182000000
H     0.454000000    -1.581000000    -1.981000000
C     1.357000000     0.145000000    -0.857000000
C     2.600000000     0.213000000    -1.677000000
O     2.917000000    -0.714000000    -2.350000000
O     3.269000000     1.232000000    -1.724000000
