17
-84.20774
C     0.828000000     1.203000000    -0.073000000
H     1.445000000     2.090000000    -0.188000000
C    -0.238000000     1.107000000     0.833000000
H    -0.436000000     1.947000000     1.493000000
C    -0.880000000    -0.160000000     0.957000000
C    -2.095000000    -0.341000000     1.765000000
H    -1.850000000    -0.783000000     2.733000000
H    -2.496000000     0.670000000     1.870000000
H    -2.713000000    -1.057000000     1.220000000
C    -0.477000000    -1.160000000     0.106000000
H    -0.912000000    -2.156000000     0.118000000
C     0.534000000    -1.045000000    -0.841000000
H     0.780000000    -1.853000000    -1.526000000
C     1.196000000     0.169000000    -1.001000000
C     2.199000000     0.387000000    -2.126000000
O     2.303000000    -0.408000000    -3.026000000
O     2.818000000     1.391000000    -2.315000000
