17
-92.78458
C     1.156000000     0.810000000    -0.234000000
H     2.045000000     1.424000000    -0.351000000
C     0.455000000     0.755000000     0.940000000
H     0.712000000     1.451000000     1.735000000
C    -0.636000000    -0.139000000     1.072000000
C    -1.394000000    -0.156000000     2.358000000
H    -2.457000000    -0.318000000     2.168000000
H    -1.013000000    -0.987000000     2.955000000
H    -1.374000000     0.808000000     2.871000000
C    -0.970000000    -0.888000000    -0.062000000
H    -1.913000000    -1.421000000     0.029000000
C    -0.255000000    -0.763000000    -1.215000000
H    -0.639000000    -1.238000000    -2.114000000
C     0.908000000     0.039000000    -1.328000000
C     1.596000000     0.183000000    -2.628000000
O     1.029000000    -0.105000000    -3.620000000
O     2.755000000     0.545000000    -2.572000000
