17
-98.43370
C     0.837000000    -1.212000000     0.284000000
H     1.592000000    -1.969000000     0.484000000
C     0.526000000    -0.131000000     1.163000000
H     1.046000000    -0.067000000     2.115000000
C    -0.263000000     0.968000000     0.745000000
C    -0.438000000     2.140000000     1.680000000
H     0.286000000     2.106000000     2.498000000
H    -0.418000000     3.116000000     1.189000000
H    -1.371000000     1.887000000     2.188000000
C    -0.792000000     0.939000000    -0.508000000
H    -1.320000000     1.839000000    -0.814000000
C    -0.567000000    -0.177000000    -1.340000000
H    -1.146000000    -0.221000000    -2.259000000
C     0.281000000    -1.213000000    -0.965000000
C     0.477000000    -2.397000000    -1.898000000
O    -0.275000000    -2.548000000    -2.833000000
O     1.550000000    -3.067000000    -1.736000000
