17
-96.89706
C     1.228000000    -0.467000000    -0.692000000
H     2.210000000    -0.615000000    -1.134000000
C     1.138000000    -0.068000000     0.651000000
H     2.034000000    -0.013000000     1.264000000
C    -0.087000000     0.230000000     1.217000000
C    -0.240000000     0.710000000     2.646000000
H    -0.820000000     1.636000000     2.633000000
H    -0.944000000     0.076000000     3.188000000
H     0.733000000     0.804000000     3.132000000
C    -1.241000000     0.221000000     0.388000000
H    -2.226000000     0.507000000     0.748000000
C    -1.119000000    -0.156000000    -0.957000000
H    -2.032000000    -0.269000000    -1.535000000
C     0.143000000    -0.444000000    -1.523000000
C     0.355000000    -0.698000000    -2.957000000
O    -0.610000000    -0.583000000    -3.657000000
O     1.471000000    -0.877000000    -3.406000000
