17
-97.62465
C     1.183000000    -0.812000000    -0.001000000
H     2.112000000    -1.372000000     0.074000000
C     0.596000000    -0.178000000     1.104000000
H     1.106000000    -0.137000000     2.063000000
C    -0.488000000     0.681000000     0.934000000
C    -1.005000000     1.421000000     2.093000000
H    -0.240000000     1.525000000     2.865000000
H    -1.315000000     2.449000000     1.895000000
H    -1.765000000     0.791000000     2.558000000
C    -1.096000000     0.711000000    -0.293000000
H    -1.965000000     1.339000000    -0.471000000
C    -0.607000000    -0.039000000    -1.355000000
H    -0.943000000     0.103000000    -2.379000000
C     0.544000000    -0.826000000    -1.228000000
C     1.100000000    -1.698000000    -2.314000000
O     0.597000000    -1.629000000    -3.408000000
O     2.190000000    -2.334000000    -2.138000000
