17
-97.18934
C     0.984000000    -0.374000000     1.104000000
H     1.600000000    -0.653000000     1.955000000
C    -0.325000000     0.041000000     1.249000000
H    -0.736000000     0.061000000     2.255000000
C    -1.115000000     0.315000000     0.160000000
C    -2.533000000     0.841000000     0.380000000
H    -3.211000000     0.600000000    -0.441000000
H    -2.972000000     0.485000000     1.314000000
H    -2.502000000     1.930000000     0.461000000
C    -0.671000000     0.210000000    -1.139000000
H    -1.380000000     0.381000000    -1.945000000
C     0.608000000    -0.247000000    -1.275000000
H     0.948000000    -0.341000000    -2.303000000
C     1.474000000    -0.551000000    -0.192000000
C     2.883000000    -0.889000000    -0.475000000
O     3.301000000    -0.726000000    -1.592000000
O     3.646000000    -1.089000000     0.483000000
