17
-100.72403
C    -0.179000000    -1.344000000     0.625000000
H    -0.288000000    -2.262000000     1.197000000
C    -0.834000000    -0.146000000     0.971000000
H    -1.550000000    -0.137000000     1.788000000
C    -0.542000000     1.035000000     0.351000000
C    -1.285000000     2.292000000     0.769000000
H    -1.882000000     2.692000000    -0.053000000
H    -1.812000000     2.101000000     1.707000000
H    -0.573000000     3.093000000     0.976000000
C     0.451000000     1.093000000    -0.626000000
H     0.684000000     2.057000000    -1.071000000
C     1.073000000    -0.099000000    -0.973000000
H     1.838000000    -0.135000000    -1.744000000
C     0.781000000    -1.327000000    -0.346000000
C     1.293000000    -2.641000000    -0.991000000
O     1.833000000    -2.566000000    -2.087000000
O     0.988000000    -3.709000000    -0.487000000
