17
-100.34502
C     1.134000000    -0.702000000     0.623000000
H     1.906000000    -1.226000000     1.181000000
C     0.074000000    -0.107000000     1.287000000
H    -0.042000000    -0.259000000     2.357000000
C    -0.879000000     0.570000000     0.602000000
C    -2.042000000     1.188000000     1.336000000
H    -2.572000000     0.525000000     2.024000000
H    -1.617000000     2.030000000     1.886000000
H    -2.791000000     1.497000000     0.603000000
C    -0.758000000     0.747000000    -0.755000000
H    -1.461000000     1.407000000    -1.256000000
C     0.220000000     0.002000000    -1.436000000
H     0.257000000     0.031000000    -2.522000000
C     1.191000000    -0.702000000    -0.765000000
C     2.180000000    -1.505000000    -1.520000000
O     1.985000000    -1.741000000    -2.731000000
O     3.214000000    -1.762000000    -0.920000000
