17
-94.26545
C     1.233000000    -0.455000000     0.529000000
H     2.119000000    -0.782000000     1.069000000
C     0.206000000     0.075000000     1.264000000
H     0.333000000     0.307000000     2.318000000
C    -0.977000000     0.472000000     0.632000000
C    -1.878000000     1.371000000     1.415000000
H    -1.943000000     2.321000000     0.880000000
H    -2.887000000     0.971000000     1.531000000
H    -1.522000000     1.568000000     2.429000000
C    -1.134000000     0.189000000    -0.695000000
H    -2.122000000     0.311000000    -1.132000000
C    -0.107000000    -0.344000000    -1.476000000
H    -0.309000000    -0.531000000    -2.528000000
C     1.134000000    -0.680000000    -0.863000000
C     2.303000000    -1.397000000    -1.579000000
O     2.232000000    -1.589000000    -2.767000000
O     3.320000000    -1.808000000    -1.023000000
