17
-96.63405
C     1.335000000     0.431000000    -0.561000000
H     2.359000000     0.670000000    -0.835000000
C     0.820000000     0.769000000     0.708000000
H     1.343000000     1.382000000     1.438000000
C    -0.486000000     0.335000000     1.071000000
C    -0.953000000     0.669000000     2.443000000
H    -0.189000000     0.975000000     3.161000000
H    -1.726000000     1.434000000     2.345000000
H    -1.471000000    -0.217000000     2.816000000
C    -1.248000000    -0.546000000     0.271000000
H    -2.239000000    -0.890000000     0.555000000
C    -0.719000000    -0.817000000    -1.008000000
H    -1.327000000    -1.358000000    -1.728000000
C     0.601000000    -0.411000000    -1.379000000
C     1.148000000    -0.693000000    -2.730000000
O     0.405000000    -1.172000000    -3.549000000
O     2.348000000    -0.561000000    -3.013000000
