17
-92.57092
C     1.174000000    -0.042000000    -0.812000000
H     2.085000000     0.047000000    -1.399000000
C     0.565000000     1.110000000    -0.333000000
H     1.064000000     2.057000000    -0.518000000
C    -0.531000000     1.034000000     0.431000000
C    -1.075000000     2.293000000     0.980000000
H    -1.034000000     3.096000000     0.241000000
H    -2.121000000     2.034000000     1.154000000
H    -0.548000000     2.483000000     1.917000000
C    -1.182000000    -0.187000000     0.567000000
H    -2.116000000    -0.212000000     1.121000000
C    -0.589000000    -1.347000000     0.120000000
H    -1.006000000    -2.334000000     0.304000000
C     0.633000000    -1.327000000    -0.560000000
C     1.344000000    -2.563000000    -0.959000000
O     0.974000000    -3.687000000    -0.667000000
O     2.367000000    -2.447000000    -1.594000000
