17
-91.58460
C     1.258000000    -0.370000000    -0.614000000
H     2.260000000    -0.501000000    -1.012000000
C     1.032000000     0.767000000     0.256000000
H     1.859000000     1.439000000     0.468000000
C    -0.242000000     0.971000000     0.745000000
C    -0.502000000     2.287000000     1.416000000
H    -1.371000000     2.077000000     2.043000000
H     0.226000000     2.525000000     2.194000000
H    -0.626000000     3.188000000     0.811000000
C    -1.275000000     0.101000000     0.364000000
H    -2.250000000     0.331000000     0.786000000
C    -1.018000000    -1.040000000    -0.414000000
H    -1.752000000    -1.818000000    -0.608000000
C     0.280000000    -1.336000000    -0.817000000
C     0.619000000    -2.565000000    -1.629000000
O    -0.103000000    -3.539000000    -1.682000000
O     1.602000000    -2.519000000    -2.300000000
