17
-88.87789
C     0.755000000    -0.528000000    -1.123000000
H     1.440000000    -0.762000000    -1.933000000
C     0.954000000     0.687000000    -0.482000000
H     1.789000000     1.330000000    -0.750000000
C     0.120000000     1.149000000     0.496000000
C     0.462000000     2.414000000     1.224000000
H     1.108000000     3.100000000     0.672000000
H    -0.472000000     2.902000000     1.511000000
H     0.956000000     2.178000000     2.168000000
C    -0.894000000     0.322000000     0.887000000
H    -1.546000000     0.786000000     1.623000000
C    -0.969000000    -1.004000000     0.398000000
H    -1.670000000    -1.696000000     0.859000000
C    -0.251000000    -1.421000000    -0.745000000
C    -0.458000000    -2.794000000    -1.400000000
O    -1.399000000    -3.449000000    -0.993000000
O     0.073000000    -3.219000000    -2.408000000
