17
-98.69837
C     0.639000000    -1.058000000    -0.829000000
H     1.238000000    -1.869000000    -1.235000000
C     1.300000000    -0.031000000    -0.231000000
H     2.385000000    -0.093000000    -0.252000000
C     0.638000000     0.977000000     0.496000000
C     1.295000000     2.034000000     1.366000000
H     1.054000000     1.720000000     2.384000000
H     2.360000000     2.233000000     1.229000000
H     0.836000000     3.004000000     1.162000000
C    -0.777000000     0.907000000     0.464000000
H    -1.350000000     1.639000000     1.027000000
C    -1.455000000    -0.121000000    -0.197000000
H    -2.538000000    -0.168000000    -0.269000000
C    -0.715000000    -1.120000000    -0.808000000
C    -1.460000000    -2.341000000    -1.299000000
O    -2.675000000    -2.428000000    -1.274000000
O    -0.776000000    -3.291000000    -1.733000000
