17
-92.36825
C     1.006000000    -0.638000000    -0.921000000
H     1.696000000    -0.894000000    -1.722000000
C     1.172000000     0.606000000    -0.263000000
H     1.951000000     1.302000000    -0.564000000
C     0.146000000     1.062000000     0.515000000
C     0.124000000     2.494000000     1.089000000
H     0.233000000     2.525000000     2.175000000
H     0.966000000     3.044000000     0.664000000
H    -0.826000000     2.957000000     0.813000000
C    -0.962000000     0.277000000     0.884000000
H    -1.710000000     0.558000000     1.620000000
C    -1.046000000    -0.978000000     0.243000000
H    -1.869000000    -1.651000000     0.468000000
C    -0.150000000    -1.370000000    -0.715000000
C    -0.237000000    -2.732000000    -1.288000000
O    -1.290000000    -3.267000000    -1.355000000
O     0.788000000    -3.291000000    -1.650000000
