17
-97.24467
C    -0.060000000    -0.167000000    -1.455000000
H     0.081000000    -0.359000000    -2.516000000
C     0.949000000     0.456000000    -0.772000000
H     1.753000000     0.844000000    -1.393000000
C     0.870000000     0.548000000     0.589000000
C     1.934000000     1.385000000     1.307000000
H     2.843000000     0.804000000     1.477000000
H     2.244000000     2.226000000     0.683000000
H     1.583000000     1.782000000     2.261000000
C    -0.223000000     0.055000000     1.330000000
H    -0.281000000     0.259000000     2.396000000
C    -1.249000000    -0.580000000     0.579000000
H    -2.077000000    -0.929000000     1.190000000
C    -1.133000000    -0.807000000    -0.797000000
C    -2.121000000    -1.639000000    -1.462000000
O    -3.025000000    -2.078000000    -0.744000000
O    -2.093000000    -1.797000000    -2.672000000
