17
-94.78839
C     0.887000000    -0.798000000    -0.938000000
H     1.578000000    -1.339000000    -1.580000000
C     1.273000000     0.298000000    -0.193000000
H     2.305000000     0.625000000    -0.294000000
C     0.403000000     0.980000000     0.657000000
C     0.774000000     2.183000000     1.427000000
H     0.189000000     3.055000000     1.127000000
H     0.474000000     2.005000000     2.461000000
H     1.851000000     2.359000000     1.409000000
C    -0.951000000     0.555000000     0.774000000
H    -1.548000000     1.061000000     1.528000000
C    -1.308000000    -0.563000000     0.019000000
H    -2.289000000    -1.022000000     0.111000000
C    -0.458000000    -1.219000000    -0.862000000
C    -0.925000000    -2.387000000    -1.700000000
O    -2.071000000    -2.695000000    -1.615000000
O    -0.182000000    -3.106000000    -2.338000000
