17
-94.15591
C    -0.039000000    -1.480000000     0.521000000
H    -0.040000000    -2.464000000     0.983000000
C     1.040000000    -0.586000000     0.594000000
H     1.950000000    -0.916000000     1.088000000
C     1.025000000     0.752000000     0.143000000
C     2.134000000     1.703000000     0.167000000
H     2.851000000     1.534000000    -0.639000000
H     1.713000000     2.701000000     0.031000000
H     2.637000000     1.713000000     1.136000000
C    -0.169000000     1.171000000    -0.504000000
H    -0.159000000     2.176000000    -0.916000000
C    -1.311000000     0.349000000    -0.495000000
H    -2.279000000     0.703000000    -0.842000000
C    -1.175000000    -0.998000000    -0.120000000
C    -2.390000000    -1.921000000    -0.319000000
O    -3.201000000    -1.536000000    -1.133000000
O    -2.591000000    -2.907000000     0.312000000
