17
-89.69652
C     0.068000000    -1.524000000     0.111000000
H     0.252000000    -2.568000000     0.352000000
C     1.154000000    -0.623000000     0.081000000
H     2.122000000    -1.046000000     0.338000000
C     0.961000000     0.781000000    -0.090000000
C     2.131000000     1.787000000    -0.089000000
H     2.492000000     2.008000000     0.917000000
H     2.988000000     1.393000000    -0.640000000
H     1.953000000     2.715000000    -0.635000000
C    -0.347000000     1.325000000    -0.217000000
H    -0.576000000     2.386000000    -0.271000000
C    -1.411000000     0.332000000    -0.105000000
H    -2.410000000     0.757000000    -0.052000000
C    -1.229000000    -1.028000000    -0.048000000
C    -2.404000000    -1.968000000     0.036000000
O    -3.468000000    -1.617000000     0.545000000
O    -2.268000000    -3.105000000    -0.237000000
