17
-94.62677
C    -0.162000000    -1.023000000     1.081000000
H    -0.209000000    -1.686000000     1.942000000
C     0.624000000     0.132000000     1.176000000
H     1.125000000     0.394000000     2.105000000
C     0.747000000     0.987000000     0.062000000
C     1.664000000     2.132000000     0.147000000
H     1.332000000     2.791000000    -0.658000000
H     1.708000000     2.682000000     1.089000000
H     2.685000000     1.848000000    -0.119000000
C    -0.001000000     0.799000000    -1.085000000
H     0.063000000     1.483000000    -1.928000000
C    -0.886000000    -0.312000000    -1.125000000
H    -1.444000000    -0.484000000    -2.042000000
C    -0.960000000    -1.197000000    -0.063000000
C    -1.849000000    -2.512000000    -0.157000000
O    -2.401000000    -2.776000000    -1.192000000
O    -2.038000000    -3.259000000     0.772000000
