17
-96.55000
C     1.216000000    -0.620000000     0.702000000
H     2.102000000    -0.822000000     1.299000000
C     1.287000000     0.466000000    -0.145000000
H     2.244000000     0.972000000    -0.246000000
C     0.076000000     0.944000000    -0.721000000
C     0.139000000     2.120000000    -1.605000000
H     0.874000000     2.854000000    -1.267000000
H     0.407000000     1.898000000    -2.640000000
H    -0.823000000     2.577000000    -1.843000000
C    -1.172000000     0.292000000    -0.488000000
H    -2.092000000     0.719000000    -0.877000000
C    -1.204000000    -0.857000000     0.267000000
H    -2.199000000    -1.243000000     0.475000000
C     0.012000000    -1.255000000     0.891000000
C    -0.205000000    -2.391000000     1.818000000
O    -1.126000000    -3.153000000     1.513000000
O     0.457000000    -2.499000000     2.860000000
