17
-87.27677
C    -0.142000000    -0.813000000     1.213000000
H    -0.212000000    -1.507000000     2.048000000
C     0.731000000     0.305000000     1.145000000
H     1.421000000     0.428000000     1.976000000
C     0.736000000     1.027000000    -0.044000000
C     1.750000000     2.034000000    -0.323000000
H     2.592000000     1.880000000     0.355000000
H     2.087000000     1.796000000    -1.334000000
H     1.332000000     3.026000000    -0.141000000
C    -0.205000000     0.738000000    -1.047000000
H    -0.198000000     1.428000000    -1.886000000
C    -1.025000000    -0.371000000    -0.978000000
H    -1.654000000    -0.622000000    -1.828000000
C    -1.051000000    -1.145000000     0.152000000
C    -1.909000000    -2.367000000     0.241000000
O    -2.409000000    -2.785000000    -0.755000000
O    -1.849000000    -3.045000000     1.212000000
