17
-94.31279
C     0.654000000    -0.963000000     0.893000000
H     1.233000000    -1.653000000     1.502000000
C     1.204000000     0.278000000     0.500000000
H     2.214000000     0.495000000     0.840000000
C     0.424000000     1.097000000    -0.382000000
C     1.050000000     2.457000000    -0.913000000
H     0.457000000     3.286000000    -0.522000000
H     2.106000000     2.573000000    -0.658000000
H     1.040000000     2.406000000    -2.004000000
C    -0.847000000     0.635000000    -0.780000000
H    -1.372000000     1.341000000    -1.420000000
C    -1.402000000    -0.536000000    -0.352000000
H    -2.447000000    -0.762000000    -0.551000000
C    -0.619000000    -1.396000000     0.450000000
C    -1.105000000    -2.739000000     1.014000000
O    -2.045000000    -3.176000000     0.439000000
O    -0.551000000    -3.344000000     1.943000000
