17
-99.12451
C     0.620000000     0.099000000     1.301000000
H     1.169000000     0.298000000     2.218000000
C     0.746000000     1.019000000     0.292000000
H     1.459000000     1.832000000     0.404000000
C     0.054000000     0.870000000    -0.900000000
C     0.345000000     1.722000000    -2.070000000
H    -0.457000000     1.583000000    -2.798000000
H     0.350000000     2.766000000    -1.752000000
H     1.293000000     1.405000000    -2.510000000
C    -0.762000000    -0.235000000    -1.043000000
H    -1.230000000    -0.358000000    -2.017000000
C    -0.923000000    -1.159000000     0.018000000
H    -1.600000000    -2.005000000    -0.071000000
C    -0.229000000    -0.988000000     1.189000000
C    -0.269000000    -1.994000000     2.271000000
O    -0.905000000    -3.054000000     2.153000000
O     0.340000000    -1.797000000     3.311000000
