17
-94.78706
C    -0.100000000    -1.111000000     1.003000000
H    -0.041000000    -1.825000000     1.821000000
C     0.735000000     0.020000000     1.071000000
H     1.414000000    -0.055000000     1.917000000
C     0.803000000     0.929000000     0.042000000
C     1.697000000     2.111000000     0.140000000
H     1.708000000     2.488000000     1.164000000
H     2.692000000     1.834000000    -0.214000000
H     1.427000000     2.962000000    -0.490000000
C    -0.005000000     0.797000000    -1.066000000
H    -0.118000000     1.490000000    -1.897000000
C    -0.982000000    -0.207000000    -1.007000000
H    -1.753000000    -0.216000000    -1.773000000
C    -0.981000000    -1.173000000    -0.030000000
C    -1.914000000    -2.342000000    -0.184000000
O    -2.516000000    -2.557000000    -1.232000000
O    -2.060000000    -3.144000000     0.727000000
