17
-97.24220
C     0.808000000     0.663000000     0.992000000
H     1.378000000     1.303000000     1.661000000
C     0.183000000     1.268000000    -0.081000000
H     0.269000000     2.350000000    -0.154000000
C    -0.573000000     0.544000000    -0.993000000
C    -1.041000000     1.248000000    -2.200000000
H    -0.156000000     1.628000000    -2.715000000
H    -1.599000000     0.531000000    -2.806000000
H    -1.679000000     2.076000000    -1.883000000
C    -0.677000000    -0.811000000    -0.783000000
H    -1.174000000    -1.471000000    -1.490000000
C    -0.030000000    -1.470000000     0.273000000
H    -0.336000000    -2.486000000     0.509000000
C     0.633000000    -0.723000000     1.221000000
C     1.181000000    -1.395000000     2.483000000
O     1.077000000    -2.581000000     2.651000000
O     1.732000000    -0.679000000     3.309000000
