17
-94.36394
C     0.051000000     1.057000000     1.018000000
H     0.169000000     1.785000000     1.816000000
C     1.014000000     0.823000000     0.069000000
H     1.929000000     1.401000000    -0.030000000
C     0.853000000    -0.244000000    -0.830000000
C     1.916000000    -0.497000000    -1.935000000
H     1.819000000    -1.430000000    -2.495000000
H     1.990000000     0.393000000    -2.564000000
H     2.892000000    -0.712000000    -1.493000000
C    -0.310000000    -1.019000000    -0.753000000
H    -0.460000000    -1.853000000    -1.434000000
C    -1.291000000    -0.693000000     0.139000000
H    -2.202000000    -1.285000000     0.111000000
C    -1.163000000     0.368000000     1.043000000
C    -2.177000000     0.642000000     2.149000000
O    -3.239000000     0.144000000     2.004000000
O    -1.793000000     1.126000000     3.183000000
