17
-99.24629
C     0.262000000     0.820000000     1.159000000
H     0.593000000     1.529000000     1.914000000
C     0.633000000     1.125000000    -0.119000000
H     1.143000000     2.035000000    -0.423000000
C     0.396000000     0.207000000    -1.128000000
C     0.698000000     0.544000000    -2.578000000
H     1.372000000     1.403000000    -2.557000000
H     1.015000000    -0.360000000    -3.103000000
H    -0.142000000     0.972000000    -3.129000000
C    -0.359000000    -0.900000000    -0.848000000
H    -0.620000000    -1.584000000    -1.651000000
C    -0.788000000    -1.182000000     0.465000000
H    -1.395000000    -2.067000000     0.632000000
C    -0.344000000    -0.393000000     1.522000000
C    -0.716000000    -0.690000000     2.938000000
O    -1.550000000    -1.569000000     3.170000000
O    -0.197000000     0.105000000     3.744000000
