17
-99.54454
C     0.464000000     0.969000000     1.069000000
H     0.961000000     1.587000000     1.813000000
C     1.213000000     0.571000000    -0.085000000
H     2.114000000     1.116000000    -0.354000000
C     0.645000000    -0.320000000    -0.969000000
C     1.342000000    -0.587000000    -2.304000000
H     0.600000000    -0.472000000    -3.097000000
H     2.079000000     0.165000000    -2.591000000
H     1.710000000    -1.615000000    -2.329000000
C    -0.610000000    -0.941000000    -0.701000000
H    -1.036000000    -1.588000000    -1.464000000
C    -1.228000000    -0.689000000     0.536000000
H    -2.211000000    -1.131000000     0.675000000
C    -0.736000000     0.316000000     1.354000000
C    -1.522000000     0.734000000     2.529000000
O    -2.698000000     0.255000000     2.637000000
O    -1.090000000     1.634000000     3.283000000
