17
-91.87238
C     0.358000000     0.878000000     1.190000000
H     0.607000000     1.599000000     1.964000000
C     0.176000000     1.294000000    -0.139000000
H     0.265000000     2.311000000    -0.513000000
C    -0.067000000     0.401000000    -1.114000000
C    -0.296000000     0.870000000    -2.530000000
H    -0.472000000    -0.019000000    -3.139000000
H    -1.187000000     1.491000000    -2.650000000
H     0.492000000     1.530000000    -2.899000000
C    -0.157000000    -0.969000000    -0.874000000
H    -0.381000000    -1.686000000    -1.660000000
C    -0.072000000    -1.415000000     0.413000000
H    -0.138000000    -2.475000000     0.644000000
C     0.192000000    -0.520000000     1.476000000
C     0.206000000    -0.946000000     2.897000000
O    -0.046000000    -2.103000000     3.114000000
O     0.526000000    -0.236000000     3.814000000
