17
-90.23061
C     0.952000000     1.009000000     0.724000000
H     1.686000000     1.711000000     1.113000000
C     1.124000000     0.344000000    -0.523000000
H     2.087000000     0.510000000    -1.000000000
C     0.274000000    -0.611000000    -1.138000000
C     0.535000000    -1.293000000    -2.433000000
H     0.159000000    -2.313000000    -2.328000000
H    -0.080000000    -0.773000000    -3.170000000
H     1.612000000    -1.248000000    -2.606000000
C    -0.956000000    -0.789000000    -0.470000000
H    -1.695000000    -1.456000000    -0.904000000
C    -1.251000000    -0.191000000     0.777000000
H    -2.210000000    -0.335000000     1.268000000
C    -0.288000000     0.746000000     1.389000000
C    -0.561000000     1.374000000     2.759000000
O    -1.582000000     1.115000000     3.359000000
O     0.186000000     2.201000000     3.180000000
