17
-92.05419
C     0.243000000     0.718000000     1.367000000
H     0.612000000     1.295000000     2.211000000
C     1.233000000     0.040000000     0.528000000
H     2.293000000     0.033000000     0.770000000
C     0.901000000    -0.526000000    -0.718000000
C     1.918000000    -1.219000000    -1.592000000
H     2.717000000    -0.545000000    -1.908000000
H     2.366000000    -2.043000000    -1.032000000
H     1.416000000    -1.590000000    -2.488000000
C    -0.430000000    -0.683000000    -1.003000000
H    -0.800000000    -1.259000000    -1.848000000
C    -1.394000000    -0.054000000    -0.167000000
H    -2.428000000    -0.250000000    -0.436000000
C    -1.125000000     0.696000000     0.977000000
C    -2.197000000     1.536000000     1.613000000
O    -3.301000000     1.734000000     1.063000000
O    -2.021000000     2.120000000     2.658000000
