17
-94.57783
C     0.673000000     1.022000000     0.936000000
H     1.090000000     1.677000000     1.697000000
C     1.160000000     0.649000000    -0.296000000
H     2.142000000     0.998000000    -0.604000000
C     0.468000000    -0.300000000    -1.113000000
C     1.093000000    -0.918000000    -2.318000000
H     0.441000000    -1.644000000    -2.809000000
H     1.383000000    -0.150000000    -3.037000000
H     2.014000000    -1.440000000    -2.048000000
C    -0.772000000    -0.687000000    -0.752000000
H    -1.397000000    -1.355000000    -1.339000000
C    -1.396000000    -0.223000000     0.420000000
H    -2.316000000    -0.743000000     0.678000000
C    -0.605000000     0.502000000     1.368000000
C    -1.175000000     0.775000000     2.741000000
O    -2.281000000     0.387000000     2.953000000
O    -0.519000000     1.456000000     3.523000000
