17
-99.75267
C     0.912000000     1.085000000     0.438000000
H     1.665000000     1.826000000     0.693000000
C     1.236000000    -0.014000000    -0.377000000
H     2.225000000    -0.113000000    -0.818000000
C     0.295000000    -0.987000000    -0.657000000
C     0.567000000    -2.039000000    -1.663000000
H     0.788000000    -1.675000000    -2.668000000
H     1.452000000    -2.644000000    -1.455000000
H    -0.284000000    -2.719000000    -1.744000000
C    -0.992000000    -0.913000000    -0.146000000
H    -1.781000000    -1.591000000    -0.462000000
C    -1.291000000     0.246000000     0.634000000
H    -2.334000000     0.310000000     0.931000000
C    -0.376000000     1.228000000     0.941000000
C    -0.632000000     2.379000000     1.830000000
O    -1.801000000     2.748000000     2.134000000
O     0.345000000     2.866000000     2.384000000
