17
-97.33048
C    -0.171000000    -1.437000000     0.144000000
H    -0.461000000    -2.480000000     0.042000000
C    -0.557000000    -0.638000000    -0.950000000
H    -1.025000000    -1.169000000    -1.775000000
C    -0.358000000     0.771000000    -0.905000000
C    -0.670000000     1.549000000    -2.170000000
H     0.198000000     1.594000000    -2.831000000
H    -1.559000000     1.137000000    -2.653000000
H    -0.953000000     2.580000000    -1.949000000
C     0.223000000     1.330000000     0.198000000
H     0.323000000     2.411000000     0.246000000
C     0.644000000     0.483000000     1.259000000
H     1.026000000     0.960000000     2.158000000
C     0.494000000    -0.905000000     1.180000000
C     0.821000000    -1.808000000     2.356000000
O     1.409000000    -1.336000000     3.319000000
O     0.617000000    -3.034000000     2.338000000
