17
-89.44103
C     1.231000000    -0.332000000     0.603000000
H     2.249000000    -0.514000000     0.938000000
C     1.013000000     0.019000000    -0.705000000
H     1.856000000     0.218000000    -1.362000000
C    -0.251000000     0.232000000    -1.223000000
C    -0.307000000     0.929000000    -2.571000000
H    -0.603000000     1.948000000    -2.312000000
H     0.748000000     0.990000000    -2.845000000
H    -0.980000000     0.338000000    -3.195000000
C    -1.330000000     0.155000000    -0.388000000
H    -2.335000000     0.318000000    -0.767000000
C    -1.166000000    -0.203000000     1.010000000
H    -2.042000000    -0.419000000     1.617000000
C     0.183000000    -0.554000000     1.480000000
C     0.482000000    -0.938000000     2.880000000
O    -0.373000000    -1.478000000     3.537000000
O     1.630000000    -0.709000000     3.305000000
