17
-91.86042
C     0.839000000    -1.114000000     0.388000000
H     1.459000000    -2.001000000     0.488000000
C     0.250000000    -0.904000000    -0.834000000
H     0.384000000    -1.563000000    -1.688000000
C    -0.522000000     0.235000000    -1.093000000
C    -1.200000000     0.287000000    -2.427000000
H    -0.488000000     0.346000000    -3.253000000
H    -1.889000000    -0.560000000    -2.442000000
H    -1.795000000     1.203000000    -2.457000000
C    -0.598000000     1.199000000    -0.146000000
H    -1.293000000     2.014000000    -0.338000000
C    -0.067000000     0.932000000     1.101000000
H    -0.297000000     1.628000000     1.903000000
C     0.625000000    -0.267000000     1.461000000
C     1.288000000    -0.481000000     2.792000000
O     0.964000000     0.154000000     3.766000000
O     2.344000000    -1.102000000     2.783000000
