17
-98.56576
C    -0.997000000    -0.623000000     0.922000000
H    -1.747000000    -0.978000000     1.623000000
C    -1.175000000     0.560000000     0.175000000
H    -2.049000000     1.195000000     0.286000000
C    -0.209000000     1.022000000    -0.644000000
C    -0.383000000     2.254000000    -1.392000000
H    -0.290000000     3.141000000    -0.762000000
H     0.463000000     2.287000000    -2.080000000
H    -1.340000000     2.205000000    -1.916000000
C     0.988000000     0.315000000    -0.837000000
H     1.725000000     0.693000000    -1.541000000
C     1.160000000    -0.853000000    -0.122000000
H     2.070000000    -1.423000000    -0.291000000
C     0.181000000    -1.333000000     0.803000000
C     0.417000000    -2.554000000     1.651000000
O     1.522000000    -3.118000000     1.543000000
O    -0.339000000    -2.789000000     2.587000000
