17
-86.44129
C    -1.229000000    -0.616000000     0.454000000
H    -2.137000000    -1.019000000     0.895000000
C    -1.081000000     0.669000000     0.020000000
H    -1.862000000     1.411000000     0.158000000
C     0.153000000     1.139000000    -0.351000000
C     0.201000000     2.567000000    -0.899000000
H    -0.814000000     2.967000000    -0.933000000
H     0.784000000     3.335000000    -0.385000000
H     0.542000000     2.474000000    -1.933000000
C     1.229000000     0.262000000    -0.386000000
H     2.186000000     0.595000000    -0.780000000
C     1.094000000    -1.039000000     0.010000000
H     1.978000000    -1.667000000    -0.063000000
C    -0.151000000    -1.474000000     0.470000000
C    -0.264000000    -2.861000000     1.018000000
O     0.704000000    -3.407000000     1.421000000
O    -1.331000000    -3.343000000     1.281000000
