17
-89.10946
C    -1.183000000    -0.764000000     0.335000000
H    -2.092000000    -1.337000000     0.498000000
C    -1.153000000     0.400000000    -0.406000000
H    -2.088000000     0.747000000    -0.838000000
C     0.030000000     1.092000000    -0.577000000
C    -0.063000000     2.444000000    -1.213000000
H    -1.081000000     2.772000000    -1.436000000
H     0.442000000     3.211000000    -0.622000000
H     0.437000000     2.432000000    -2.183000000
C     1.224000000     0.467000000    -0.207000000
H     2.195000000     0.947000000    -0.301000000
C     1.214000000    -0.774000000     0.399000000
H     2.134000000    -1.324000000     0.581000000
C    -0.001000000    -1.335000000     0.792000000
C    -0.010000000    -2.634000000     1.463000000
O     0.977000000    -3.042000000     2.053000000
O    -0.990000000    -3.300000000     1.660000000
