17
-80.61776
C    -0.549000000    -1.235000000     0.626000000
H    -1.059000000    -2.154000000     0.903000000
C    -0.945000000    -0.557000000    -0.476000000
H    -1.629000000    -1.010000000    -1.189000000
C    -0.395000000     0.564000000    -0.948000000
C    -0.976000000     1.243000000    -2.194000000
H    -1.994000000     0.936000000    -2.443000000
H    -0.942000000     2.332000000    -2.117000000
H    -0.523000000     0.932000000    -3.138000000
C     0.583000000     1.197000000    -0.249000000
H     1.017000000     2.117000000    -0.630000000
C     1.068000000     0.501000000     0.854000000
H     1.974000000     0.774000000     1.388000000
C     0.517000000    -0.681000000     1.295000000
C     1.175000000    -1.487000000     2.439000000
O     1.972000000    -0.928000000     3.088000000
O     0.712000000    -2.538000000     2.798000000
