17
-89.91919
C    -0.490000000    -1.353000000     0.522000000
H    -0.980000000    -2.260000000     0.867000000
C    -1.133000000    -0.512000000    -0.389000000
H    -2.128000000    -0.891000000    -0.610000000
C    -0.589000000     0.670000000    -0.886000000
C    -1.239000000     1.563000000    -1.914000000
H    -1.675000000     0.812000000    -2.576000000
H    -1.953000000     2.293000000    -1.527000000
H    -0.515000000     2.151000000    -2.481000000
C     0.645000000     1.038000000    -0.429000000
H     1.116000000     1.959000000    -0.764000000
C     1.258000000     0.320000000     0.580000000
H     2.245000000     0.645000000     0.902000000
C     0.673000000    -0.868000000     1.173000000
C     1.404000000    -1.652000000     2.227000000
O     2.581000000    -1.527000000     2.358000000
O     0.782000000    -2.396000000     2.949000000
