17
-97.52811
C    -1.181000000    -0.507000000    -0.809000000
H    -2.119000000    -0.673000000    -1.332000000
C    -1.126000000     0.641000000     0.016000000
H    -1.979000000     1.308000000     0.114000000
C     0.048000000     1.007000000     0.707000000
C     0.144000000     2.330000000     1.421000000
H     0.654000000     3.105000000     0.845000000
H    -0.840000000     2.757000000     1.628000000
H     0.695000000     2.162000000     2.349000000
C     1.149000000     0.161000000     0.669000000
H     2.058000000     0.283000000     1.251000000
C     1.062000000    -0.934000000    -0.189000000
H     1.947000000    -1.566000000    -0.189000000
C    -0.036000000    -1.288000000    -0.916000000
C    -0.117000000    -2.568000000    -1.695000000
O     0.872000000    -3.190000000    -1.957000000
O    -1.227000000    -3.022000000    -1.916000000
