17
-98.79494
C    -1.267000000    -0.745000000     0.137000000
H    -2.252000000    -1.092000000     0.437000000
C    -1.167000000     0.628000000     0.247000000
H    -2.089000000     1.157000000     0.476000000
C     0.070000000     1.196000000     0.065000000
C     0.258000000     2.684000000     0.308000000
H     1.214000000     3.047000000    -0.075000000
H    -0.501000000     3.225000000    -0.260000000
H     0.305000000     2.893000000     1.379000000
C     1.183000000     0.429000000    -0.192000000
H     2.151000000     0.905000000    -0.329000000
C     1.107000000    -0.950000000    -0.262000000
H     2.007000000    -1.523000000    -0.471000000
C    -0.102000000    -1.596000000    -0.126000000
C    -0.277000000    -3.059000000    -0.405000000
O     0.739000000    -3.633000000    -0.790000000
O    -1.380000000    -3.572000000    -0.144000000
