17
-88.46148
C    -0.998000000    -0.373000000     1.032000000
H    -1.745000000    -0.735000000     1.733000000
C    -1.118000000     0.822000000     0.218000000
H    -1.989000000     1.470000000     0.157000000
C    -0.093000000     1.028000000    -0.754000000
C    -0.200000000     2.259000000    -1.635000000
H     0.858000000     2.439000000    -1.836000000
H    -0.809000000     1.946000000    -2.486000000
H    -0.606000000     3.055000000    -1.008000000
C     0.985000000     0.133000000    -0.834000000
H     1.672000000     0.134000000    -1.676000000
C     0.986000000    -1.037000000    -0.076000000
H     1.812000000    -1.738000000    -0.173000000
C     0.060000000    -1.229000000     0.961000000
C     0.306000000    -2.475000000     1.831000000
O     1.320000000    -3.130000000     1.761000000
O    -0.444000000    -2.569000000     2.784000000
