17
-87.93206
C    -1.247000000    -0.740000000     0.494000000
H    -2.179000000    -1.199000000     0.811000000
C    -1.020000000     0.640000000     0.493000000
H    -1.765000000     1.397000000     0.725000000
C     0.187000000     1.204000000    -0.002000000
C     0.225000000     2.710000000    -0.140000000
H     0.083000000     3.117000000     0.864000000
H     1.216000000     2.978000000    -0.511000000
H    -0.584000000     2.987000000    -0.818000000
C     1.164000000     0.407000000    -0.477000000
H     2.043000000     0.802000000    -0.979000000
C     1.040000000    -0.973000000    -0.340000000
H     1.805000000    -1.716000000    -0.548000000
C    -0.182000000    -1.542000000     0.101000000
C    -0.228000000    -2.972000000     0.043000000
O     0.681000000    -3.721000000    -0.271000000
O    -1.243000000    -3.384000000     0.550000000
