17
-89.58983
C    -0.986000000     0.042000000    -1.129000000
H    -1.743000000     0.149000000    -1.902000000
C    -1.163000000     0.539000000     0.182000000
H    -2.115000000     0.960000000     0.498000000
C    -0.200000000     0.379000000     1.186000000
C    -0.295000000     1.103000000     2.517000000
H    -1.280000000     0.987000000     2.975000000
H     0.436000000     0.921000000     3.308000000
H    -0.121000000     2.125000000     2.175000000
C     0.975000000    -0.199000000     0.795000000
H     1.768000000    -0.168000000     1.538000000
C     1.142000000    -0.732000000    -0.470000000
H     2.074000000    -1.220000000    -0.743000000
C     0.189000000    -0.658000000    -1.449000000
C     0.370000000    -1.251000000    -2.831000000
O     1.474000000    -1.674000000    -3.072000000
O    -0.523000000    -1.310000000    -3.570000000
