17
-93.49580
C    -1.374000000    -0.414000000    -0.202000000
H    -2.451000000    -0.542000000    -0.140000000
C    -0.812000000     0.054000000     0.959000000
H    -1.533000000     0.213000000     1.758000000
C     0.550000000     0.269000000     1.065000000
C     1.018000000     0.706000000     2.449000000
H     2.040000000     0.337000000     2.554000000
H     1.084000000     1.792000000     2.538000000
H     0.488000000     0.223000000     3.273000000
C     1.362000000     0.198000000    -0.086000000
H     2.440000000     0.340000000    -0.118000000
C     0.753000000    -0.161000000    -1.287000000
H     1.309000000    -0.125000000    -2.220000000
C    -0.604000000    -0.511000000    -1.386000000
C    -1.256000000    -0.721000000    -2.706000000
O    -0.579000000    -0.923000000    -3.713000000
O    -2.440000000    -0.732000000    -2.746000000
