17
-100.13647
C    -1.074000000    -0.386000000    -0.988000000
H    -1.939000000    -0.502000000    -1.636000000
C    -1.262000000     0.428000000     0.154000000
H    -2.257000000     0.788000000     0.402000000
C    -0.158000000     0.725000000     0.996000000
C    -0.340000000     1.550000000     2.204000000
H     0.493000000     1.502000000     2.909000000
H    -0.478000000     2.577000000     1.859000000
H    -1.208000000     1.351000000     2.837000000
C     1.034000000     0.141000000     0.759000000
H     1.873000000     0.288000000     1.435000000
C     1.183000000    -0.696000000    -0.361000000
H     2.188000000    -1.038000000    -0.595000000
C     0.175000000    -0.968000000    -1.275000000
C     0.505000000    -1.762000000    -2.530000000
O     1.677000000    -1.963000000    -2.828000000
O    -0.406000000    -2.033000000    -3.338000000
