17
-97.75054
C     0.692000000     0.615000000    -1.204000000
H     1.323000000     0.929000000    -2.031000000
C     1.317000000     0.050000000    -0.112000000
H     2.403000000     0.079000000    -0.096000000
C     0.610000000    -0.385000000     1.026000000
C     1.253000000    -1.030000000     2.259000000
H     2.133000000    -0.453000000     2.548000000
H     0.471000000    -1.085000000     3.019000000
H     1.421000000    -2.075000000     1.987000000
C    -0.783000000    -0.343000000     0.976000000
H    -1.282000000    -0.734000000     1.859000000
C    -1.423000000     0.123000000    -0.152000000
H    -2.497000000     0.000000000    -0.263000000
C    -0.733000000     0.612000000    -1.274000000
C    -1.456000000     1.066000000    -2.527000000
O    -2.648000000     0.992000000    -2.580000000
O    -0.804000000     1.631000000    -3.431000000
