17
-92.29301
C    -1.029000000     0.256000000    -1.048000000
H    -1.839000000     0.467000000    -1.742000000
C    -0.860000000     0.956000000     0.157000000
H    -1.614000000     1.716000000     0.344000000
C     0.130000000     0.621000000     1.032000000
C     0.055000000     1.248000000     2.422000000
H     0.359000000     0.542000000     3.197000000
H     0.662000000     2.148000000     2.300000000
H    -0.965000000     1.411000000     2.777000000
C     1.086000000    -0.411000000     0.756000000
H     1.849000000    -0.774000000     1.440000000
C     1.052000000    -0.984000000    -0.522000000
H     1.908000000    -1.570000000    -0.848000000
C     0.027000000    -0.690000000    -1.399000000
C    -0.212000000    -1.419000000    -2.648000000
O     0.728000000    -2.038000000    -3.144000000
O    -1.343000000    -1.485000000    -3.068000000
