17
-93.43395
C    -1.123000000    -0.934000000    -0.080000000
H    -2.087000000    -1.437000000    -0.068000000
C    -0.980000000     0.127000000     0.854000000
H    -1.780000000     0.499000000     1.488000000
C     0.169000000     0.844000000     0.848000000
C     0.265000000     1.999000000     1.776000000
H    -0.245000000     2.870000000     1.360000000
H    -0.206000000     1.778000000     2.736000000
H     1.284000000     2.348000000     1.956000000
C     1.229000000     0.522000000    -0.001000000
H     2.102000000     1.160000000    -0.111000000
C     1.067000000    -0.520000000    -0.902000000
H     1.913000000    -0.650000000    -1.572000000
C    -0.202000000    -1.231000000    -1.025000000
C    -0.419000000    -2.225000000    -2.104000000
O     0.495000000    -2.412000000    -2.891000000
O    -1.488000000    -2.735000000    -2.257000000
