17
-92.03528
C    -0.813000000     0.380000000    -1.179000000
H    -1.417000000     0.633000000    -2.046000000
C    -0.966000000     0.933000000     0.092000000
H    -1.686000000     1.696000000     0.375000000
C    -0.103000000     0.548000000     1.105000000
C    -0.367000000     0.955000000     2.500000000
H     0.500000000     0.559000000     3.033000000
H    -0.470000000     2.042000000     2.487000000
H    -1.325000000     0.622000000     2.905000000
C     0.906000000    -0.382000000     0.826000000
H     1.500000000    -0.761000000     1.653000000
C     1.017000000    -0.882000000    -0.432000000
H     1.647000000    -1.764000000    -0.513000000
C     0.249000000    -0.473000000    -1.448000000
C     0.395000000    -1.182000000    -2.786000000
O     1.380000000    -1.901000000    -2.949000000
O    -0.443000000    -1.023000000    -3.629000000
