17
-95.20359
C    -0.133000000     1.150000000    -0.958000000
H    -0.325000000     2.056000000    -1.528000000
C    -0.193000000     1.271000000     0.434000000
H    -0.374000000     2.290000000     0.768000000
C    -0.006000000     0.129000000     1.263000000
C    -0.031000000     0.153000000     2.756000000
H    -0.480000000     1.077000000     3.125000000
H    -0.559000000    -0.691000000     3.206000000
H     0.968000000     0.020000000     3.177000000
C     0.318000000    -1.092000000     0.658000000
H     0.342000000    -1.982000000     1.282000000
C     0.257000000    -1.206000000    -0.757000000
H     0.379000000    -2.169000000    -1.246000000
C     0.116000000    -0.104000000    -1.577000000
C    -0.017000000    -0.274000000    -3.086000000
O     0.208000000    -1.293000000    -3.720000000
O    -0.477000000     0.669000000    -3.794000000
