17
-96.34234
C    -1.303000000     0.384000000    -0.576000000
H    -2.272000000     0.720000000    -0.935000000
C    -0.876000000     0.709000000     0.729000000
H    -1.509000000     1.357000000     1.330000000
C     0.356000000     0.285000000     1.166000000
C     0.822000000     0.525000000     2.634000000
H     0.016000000     0.366000000     3.354000000
H     1.622000000    -0.187000000     2.849000000
H     1.261000000     1.521000000     2.723000000
C     1.152000000    -0.536000000     0.356000000
H     2.082000000    -0.945000000     0.742000000
C     0.766000000    -0.749000000    -0.980000000
H     1.392000000    -1.301000000    -1.676000000
C    -0.518000000    -0.336000000    -1.486000000
C    -0.930000000    -0.627000000    -3.011000000
O    -0.209000000    -1.240000000    -3.779000000
O    -1.846000000     0.052000000    -3.436000000
