17
-93.37826
C     1.006000000     1.042000000    -0.206000000
H     1.727000000     1.842000000    -0.355000000
C     0.589000000     0.624000000     1.068000000
H     1.103000000     1.036000000     1.933000000
C    -0.339000000    -0.425000000     1.110000000
C    -0.692000000    -0.985000000     2.458000000
H    -0.767000000    -0.287000000     3.293000000
H    -1.707000000    -1.386000000     2.451000000
H     0.042000000    -1.726000000     2.783000000
C    -1.008000000    -0.805000000    -0.071000000
H    -1.807000000    -1.542000000    -0.069000000
C    -0.643000000    -0.343000000    -1.341000000
H    -1.185000000    -0.613000000    -2.244000000
C     0.437000000     0.518000000    -1.416000000
C     0.959000000     0.974000000    -2.738000000
O     0.118000000     1.091000000    -3.572000000
O     2.175000000     0.986000000    -3.079000000
