17
-96.56595
C    -0.181000000     1.335000000    -0.700000000
H    -0.392000000     2.328000000    -1.090000000
C    -0.369000000     1.069000000     0.663000000
H    -0.758000000     1.873000000     1.283000000
C    -0.259000000    -0.201000000     1.164000000
C    -0.354000000    -0.442000000     2.621000000
H    -0.729000000    -1.449000000     2.820000000
H     0.696000000    -0.368000000     2.909000000
H    -0.986000000     0.288000000     3.130000000
C     0.006000000    -1.307000000     0.317000000
H    -0.069000000    -2.325000000     0.693000000
C     0.308000000    -1.029000000    -0.968000000
H     0.566000000    -1.867000000    -1.610000000
C     0.246000000     0.255000000    -1.514000000
C     0.592000000     0.530000000    -2.898000000
O     0.989000000    -0.412000000    -3.570000000
O     0.700000000     1.714000000    -3.257000000
