17
-87.97544
C     1.181000000     0.854000000    -0.268000000
H     2.137000000     1.339000000    -0.449000000
C     0.709000000     0.509000000     0.981000000
H     1.242000000     0.886000000     1.850000000
C    -0.420000000    -0.319000000     1.123000000
C    -0.976000000    -0.572000000     2.456000000
H    -1.747000000     0.177000000     2.647000000
H    -1.398000000    -1.579000000     2.461000000
H    -0.139000000    -0.616000000     3.156000000
C    -1.048000000    -0.776000000    -0.008000000
H    -1.907000000    -1.427000000     0.136000000
C    -0.565000000    -0.451000000    -1.263000000
H    -1.034000000    -0.903000000    -2.134000000
C     0.536000000     0.384000000    -1.368000000
C     1.070000000     0.682000000    -2.751000000
O     0.433000000     0.317000000    -3.677000000
O     1.920000000     1.503000000    -2.897000000
