17
-94.73121
C     0.792000000    -0.651000000    -1.043000000
H     1.553000000    -1.094000000    -1.681000000
C     1.286000000    -0.121000000     0.142000000
H     2.328000000    -0.348000000     0.355000000
C     0.435000000     0.425000000     1.052000000
C     0.975000000     0.954000000     2.311000000
H     1.972000000     0.581000000     2.553000000
H     1.069000000     2.040000000     2.248000000
H     0.297000000     0.768000000     3.146000000
C    -0.946000000     0.504000000     0.797000000
H    -1.634000000     0.967000000     1.500000000
C    -1.452000000     0.012000000    -0.391000000
H    -2.487000000     0.058000000    -0.718000000
C    -0.558000000    -0.515000000    -1.332000000
C    -1.064000000    -1.056000000    -2.625000000
O    -2.053000000    -0.569000000    -3.087000000
O    -0.517000000    -1.956000000    -3.231000000
