17
-90.27720
C     0.985000000    -0.737000000    -0.865000000
H     1.812000000    -1.306000000    -1.283000000
C     1.110000000    -0.458000000     0.469000000
H     1.966000000    -0.805000000     1.043000000
C     0.102000000     0.215000000     1.161000000
C     0.339000000     0.582000000     2.639000000
H     0.253000000     1.668000000     2.705000000
H    -0.465000000     0.143000000     3.234000000
H     1.250000000     0.128000000     3.038000000
C    -1.021000000     0.685000000     0.514000000
H    -1.783000000     1.298000000     0.990000000
C    -1.108000000     0.444000000    -0.831000000
H    -1.995000000     0.823000000    -1.332000000
C    -0.095000000    -0.285000000    -1.505000000
C    -0.382000000    -0.700000000    -2.913000000
O    -1.458000000    -0.516000000    -3.462000000
O     0.485000000    -1.185000000    -3.607000000
