17
-83.03097
C     1.023000000     0.116000000    -1.057000000
H     1.916000000     0.271000000    -1.658000000
C     1.226000000    -0.126000000     0.297000000
H     2.215000000    -0.171000000     0.746000000
C     0.173000000    -0.289000000     1.145000000
C     0.483000000    -0.493000000     2.670000000
H     1.187000000    -1.279000000     2.950000000
H     0.942000000     0.463000000     2.931000000
H    -0.444000000    -0.572000000     3.242000000
C    -1.062000000    -0.080000000     0.714000000
H    -1.894000000    -0.235000000     1.395000000
C    -1.353000000     0.138000000    -0.634000000
H    -2.392000000     0.128000000    -0.954000000
C    -0.268000000     0.242000000    -1.578000000
C    -0.512000000     0.531000000    -3.023000000
O    -1.617000000     0.740000000    -3.388000000
O     0.382000000     0.612000000    -3.798000000
