17
-95.57072
C     0.353000000    -1.346000000    -0.542000000
H     0.589000000    -2.355000000    -0.871000000
C     0.532000000    -0.914000000     0.745000000
H     0.800000000    -1.681000000     1.467000000
C     0.267000000     0.388000000     1.154000000
C     0.277000000     0.776000000     2.629000000
H     1.053000000     0.220000000     3.160000000
H     0.418000000     1.851000000     2.753000000
H    -0.734000000     0.604000000     3.006000000
C    -0.197000000     1.258000000     0.216000000
H    -0.539000000     2.233000000     0.554000000
C    -0.434000000     0.854000000    -1.088000000
H    -0.880000000     1.612000000    -1.727000000
C    -0.192000000    -0.469000000    -1.496000000
C    -0.412000000    -0.898000000    -2.957000000
O    -0.584000000    -0.068000000    -3.790000000
O    -0.322000000    -2.066000000    -3.215000000
