17
-97.57141
C     0.773000000    -1.070000000    -0.703000000
H     1.403000000    -1.860000000    -1.103000000
C     0.789000000    -0.689000000     0.660000000
H     1.495000000    -1.223000000     1.291000000
C     0.065000000     0.408000000     1.150000000
C     0.236000000     0.804000000     2.644000000
H    -0.691000000     1.163000000     3.097000000
H     0.537000000    -0.021000000     3.292000000
H     0.998000000     1.568000000     2.807000000
C    -0.824000000     1.022000000     0.270000000
H    -1.572000000     1.706000000     0.663000000
C    -0.883000000     0.639000000    -1.028000000
H    -1.674000000     0.988000000    -1.687000000
C    -0.056000000    -0.368000000    -1.558000000
C    -0.180000000    -0.915000000    -2.919000000
O    -0.338000000    -0.019000000    -3.763000000
O    -0.083000000    -2.126000000    -3.111000000
