17
-94.00534
C     0.136000000    -1.412000000    -0.539000000
H     0.372000000    -2.396000000    -0.935000000
C     0.639000000    -0.945000000     0.678000000
H     1.281000000    -1.645000000     1.207000000
C     0.398000000     0.368000000     1.142000000
C     0.930000000     0.890000000     2.458000000
H     1.727000000     1.630000000     2.358000000
H     0.039000000     1.265000000     2.965000000
H     1.267000000     0.071000000     3.097000000
C    -0.263000000     1.261000000     0.291000000
H    -0.382000000     2.274000000     0.666000000
C    -0.707000000     0.832000000    -0.961000000
H    -1.233000000     1.485000000    -1.653000000
C    -0.572000000    -0.493000000    -1.391000000
C    -1.091000000    -0.930000000    -2.744000000
O    -1.811000000    -0.264000000    -3.481000000
O    -0.738000000    -1.986000000    -3.160000000
