17
-81.91399
C     0.322000000    -1.287000000    -0.476000000
H     0.725000000    -2.217000000    -0.868000000
C     1.105000000    -0.500000000     0.394000000
H     2.107000000    -0.848000000     0.631000000
C     0.627000000     0.722000000     0.803000000
C     1.704000000     1.613000000     1.458000000
H     1.445000000     1.600000000     2.519000000
H     2.651000000     1.097000000     1.286000000
H     1.823000000     2.645000000     1.122000000
C    -0.726000000     1.010000000     0.531000000
H    -1.087000000     2.011000000     0.754000000
C    -1.532000000     0.222000000    -0.256000000
H    -2.513000000     0.642000000    -0.463000000
C    -0.997000000    -0.924000000    -0.830000000
C    -1.775000000    -1.732000000    -1.799000000
O    -2.673000000    -1.325000000    -2.526000000
O    -1.207000000    -2.723000000    -2.284000000
