17
-91.25652
C     0.126000000    -1.218000000    -0.830000000
H     0.263000000    -2.173000000    -1.331000000
C     0.977000000    -0.836000000     0.269000000
H     1.890000000    -1.401000000     0.440000000
C     0.718000000     0.361000000     0.949000000
C     1.650000000     0.775000000     2.031000000
H     2.404000000     1.423000000     1.579000000
H     1.088000000     1.292000000     2.811000000
H     2.173000000    -0.034000000     2.546000000
C    -0.326000000     1.163000000     0.577000000
H    -0.642000000     2.103000000     1.025000000
C    -1.209000000     0.732000000    -0.431000000
H    -2.032000000     1.408000000    -0.650000000
C    -0.952000000    -0.414000000    -1.191000000
C    -1.783000000    -0.866000000    -2.317000000
O    -2.826000000    -0.377000000    -2.624000000
O    -1.518000000    -1.942000000    -2.851000000
