17
-94.51394
C     0.459000000    -1.102000000    -0.752000000
H     0.922000000    -1.755000000    -1.488000000
C     1.229000000    -0.344000000     0.071000000
H     2.307000000    -0.451000000    -0.018000000
C     0.672000000     0.625000000     0.825000000
C     1.623000000     1.520000000     1.599000000
H     1.128000000     1.936000000     2.479000000
H     2.556000000     0.966000000     1.721000000
H     1.937000000     2.341000000     0.951000000
C    -0.734000000     0.896000000     0.786000000
H    -1.160000000     1.645000000     1.449000000
C    -1.505000000     0.137000000    -0.132000000
H    -2.574000000     0.290000000    -0.254000000
C    -0.892000000    -0.883000000    -0.929000000
C    -1.762000000    -1.726000000    -1.869000000
O    -2.969000000    -1.556000000    -1.877000000
O    -1.229000000    -2.539000000    -2.565000000
