17
-84.11184
C    -0.088000000    -1.494000000     0.012000000
H    -0.009000000    -2.578000000    -0.036000000
C     1.048000000    -0.669000000     0.269000000
H     2.006000000    -1.174000000     0.361000000
C     0.973000000     0.672000000     0.281000000
C     2.204000000     1.487000000     0.648000000
H     2.605000000     1.155000000     1.607000000
H     2.951000000     1.335000000    -0.135000000
H     1.921000000     2.541000000     0.625000000
C    -0.248000000     1.293000000     0.160000000
H    -0.376000000     2.356000000     0.348000000
C    -1.314000000     0.568000000    -0.238000000
H    -2.267000000     1.033000000    -0.480000000
C    -1.258000000    -0.800000000    -0.368000000
C    -2.407000000    -1.702000000    -0.810000000
O    -3.523000000    -1.277000000    -0.891000000
O    -2.218000000    -2.748000000    -1.361000000
