17
-94.72078
C     0.322000000    -1.447000000    -0.192000000
H     0.698000000    -2.465000000    -0.252000000
C     1.206000000    -0.500000000     0.436000000
H     2.218000000    -0.766000000     0.730000000
C     0.703000000     0.843000000     0.576000000
C     1.626000000     1.855000000     1.171000000
H     1.818000000     1.618000000     2.220000000
H     2.557000000     1.997000000     0.618000000
H     1.121000000     2.821000000     1.104000000
C    -0.561000000     1.174000000     0.050000000
H    -0.954000000     2.185000000     0.124000000
C    -1.366000000     0.243000000    -0.535000000
H    -2.305000000     0.610000000    -0.942000000
C    -0.968000000    -1.111000000    -0.591000000
C    -1.791000000    -2.106000000    -1.306000000
O    -2.847000000    -1.706000000    -1.794000000
O    -1.483000000    -3.250000000    -1.420000000
