17
-89.31387
C     0.471000000    -1.339000000     0.334000000
H     0.833000000    -2.324000000     0.619000000
C     1.120000000    -0.210000000     0.681000000
H     2.056000000    -0.169000000     1.231000000
C     0.593000000     1.019000000     0.324000000
C     1.292000000     2.314000000     0.709000000
H     0.917000000     3.151000000     0.117000000
H     1.219000000     2.374000000     1.797000000
H     2.331000000     2.042000000     0.512000000
C    -0.520000000     1.079000000    -0.408000000
H    -1.010000000     1.977000000    -0.776000000
C    -1.200000000    -0.067000000    -0.778000000
H    -2.116000000     0.004000000    -1.358000000
C    -0.727000000    -1.326000000    -0.344000000
C    -1.517000000    -2.518000000    -0.793000000
O    -2.510000000    -2.377000000    -1.463000000
O    -1.240000000    -3.637000000    -0.401000000
