17
-83.68558
C     0.355000000    -1.168000000     0.711000000
H     0.757000000    -1.988000000     1.302000000
C     1.131000000    -0.058000000     0.590000000
H     2.086000000    -0.149000000     1.102000000
C     0.676000000     1.079000000    -0.138000000
C     1.591000000     2.280000000    -0.180000000
H     1.550000000     2.599000000     0.863000000
H     2.620000000     2.067000000    -0.477000000
H     1.115000000     3.059000000    -0.779000000
C    -0.615000000     0.976000000    -0.606000000
H    -0.894000000     1.781000000    -1.282000000
C    -1.334000000    -0.224000000    -0.632000000
H    -2.202000000    -0.290000000    -1.283000000
C    -0.885000000    -1.313000000     0.088000000
C    -1.769000000    -2.500000000     0.248000000
O    -2.650000000    -2.793000000    -0.562000000
O    -1.524000000    -3.366000000     1.029000000
