17
-95.36972
C     0.153000000    -1.348000000    -0.655000000
H     0.443000000    -2.243000000    -1.199000000
C     1.202000000    -0.518000000    -0.088000000
H     2.270000000    -0.709000000    -0.159000000
C     0.837000000     0.687000000     0.561000000
C     2.027000000     1.622000000     0.912000000
H     2.835000000     1.509000000     0.186000000
H     1.693000000     2.660000000     0.852000000
H     2.453000000     1.487000000     1.908000000
C    -0.468000000     0.970000000     0.862000000
H    -0.735000000     1.823000000     1.482000000
C    -1.459000000     0.171000000     0.229000000
H    -2.501000000     0.472000000     0.296000000
C    -1.199000000    -0.976000000    -0.534000000
C    -2.224000000    -1.684000000    -1.317000000
O    -3.389000000    -1.453000000    -1.074000000
O    -1.938000000    -2.477000000    -2.255000000
