17
-87.06527
C     0.701000000    -1.279000000     0.020000000
H     1.334000000    -2.159000000     0.091000000
C     1.068000000    -0.143000000     0.722000000
H     1.987000000    -0.140000000     1.302000000
C     0.410000000     1.036000000     0.562000000
C     1.032000000     2.294000000     1.110000000
H     1.922000000     1.979000000     1.659000000
H     1.297000000     2.991000000     0.312000000
H     0.413000000     2.859000000     1.811000000
C    -0.716000000     1.045000000    -0.233000000
H    -1.366000000     1.915000000    -0.290000000
C    -1.308000000    -0.126000000    -0.772000000
H    -2.264000000    -0.095000000    -1.288000000
C    -0.573000000    -1.335000000    -0.647000000
C    -1.135000000    -2.591000000    -1.307000000
O    -2.246000000    -2.585000000    -1.698000000
O    -0.557000000    -3.669000000    -1.347000000
