17
-97.65063
C     0.356000000    -1.433000000     0.058000000
H     0.753000000    -2.445000000     0.040000000
C     0.673000000    -0.527000000     1.030000000
H     1.218000000    -0.809000000     1.928000000
C     0.288000000     0.778000000     0.860000000
C     0.729000000     1.814000000     1.918000000
H     0.143000000     2.724000000     1.770000000
H     0.481000000     1.379000000     2.888000000
H     1.802000000     1.987000000     1.814000000
C    -0.422000000     1.199000000    -0.273000000
H    -0.589000000     2.270000000    -0.354000000
C    -0.838000000     0.279000000    -1.246000000
H    -1.386000000     0.585000000    -2.133000000
C    -0.431000000    -1.041000000    -1.033000000
C    -0.730000000    -2.015000000    -2.167000000
O    -1.113000000    -1.562000000    -3.239000000
O    -0.937000000    -3.184000000    -1.860000000
