17
-100.29802
C    -0.512000000    -0.922000000     1.077000000
H    -0.726000000    -1.544000000     1.942000000
C     0.068000000     0.325000000     1.271000000
H     0.380000000     0.613000000     2.271000000
C     0.527000000     1.127000000     0.195000000
C     1.359000000     2.395000000     0.392000000
H     1.775000000     2.552000000     1.389000000
H     2.230000000     2.356000000    -0.266000000
H     0.688000000     3.211000000     0.119000000
C     0.341000000     0.614000000    -1.103000000
H     0.749000000     1.258000000    -1.877000000
C    -0.328000000    -0.597000000    -1.306000000
H    -0.527000000    -0.906000000    -2.329000000
C    -0.792000000    -1.389000000    -0.260000000
C    -1.511000000    -2.707000000    -0.455000000
O    -1.705000000    -3.143000000    -1.592000000
O    -2.010000000    -3.243000000     0.526000000
