17
-97.78462
C    -0.248000000    -1.267000000     0.749000000
H    -0.372000000    -2.128000000     1.400000000
C     0.526000000    -0.226000000     1.209000000
H     0.912000000    -0.275000000     2.224000000
C     0.666000000     0.898000000     0.438000000
C     1.519000000     2.089000000     0.940000000
H     2.555000000     2.019000000     0.602000000
H     1.103000000     3.071000000     0.704000000
H     1.571000000     2.126000000     2.030000000
C     0.097000000     0.944000000    -0.862000000
H     0.359000000     1.795000000    -1.485000000
C    -0.674000000    -0.093000000    -1.287000000
H    -1.280000000     0.005000000    -2.183000000
C    -0.825000000    -1.226000000    -0.519000000
C    -1.789000000    -2.269000000    -1.143000000
O    -1.948000000    -2.283000000    -2.375000000
O    -2.168000000    -3.178000000    -0.439000000
