17
-85.92209
C    -1.056000000    -0.954000000     0.472000000
H    -1.778000000    -1.591000000     0.976000000
C    -0.570000000     0.091000000     1.212000000
H    -0.912000000     0.367000000     2.206000000
C     0.415000000     0.939000000     0.633000000
C     1.126000000     1.919000000     1.536000000
H     0.687000000     1.979000000     2.534000000
H     2.172000000     1.621000000     1.640000000
H     1.111000000     2.845000000     0.958000000
C     0.909000000     0.732000000    -0.676000000
H     1.720000000     1.353000000    -1.048000000
C     0.358000000    -0.308000000    -1.442000000
H     0.696000000    -0.406000000    -2.470000000
C    -0.580000000    -1.201000000    -0.847000000
C    -1.160000000    -2.249000000    -1.682000000
O    -1.478000000    -1.961000000    -2.838000000
O    -1.657000000    -3.175000000    -1.171000000
