17
-92.92982
C    -1.517000000     0.168000000     0.236000000
H    -2.511000000     0.526000000     0.493000000
C    -0.419000000     0.576000000     1.063000000
H    -0.700000000     1.169000000     1.930000000
C     0.940000000     0.347000000     0.762000000
C     2.063000000     0.912000000     1.598000000
H     2.843000000     1.313000000     0.948000000
H     1.749000000     1.810000000     2.134000000
H     2.448000000     0.195000000     2.326000000
C     1.188000000    -0.356000000    -0.416000000
H     2.243000000    -0.602000000    -0.500000000
C     0.161000000    -0.802000000    -1.265000000
H     0.430000000    -1.308000000    -2.189000000
C    -1.197000000    -0.520000000    -0.921000000
C    -2.262000000    -1.021000000    -1.822000000
O    -2.027000000    -1.433000000    -2.916000000
O    -3.432000000    -0.980000000    -1.463000000
