17
-98.20539
C    -1.444000000    -0.031000000     0.326000000
H    -2.469000000    -0.053000000     0.689000000
C    -0.444000000     0.566000000     1.082000000
H    -0.727000000     1.119000000     1.973000000
C     0.899000000     0.509000000     0.713000000
C     1.942000000     1.137000000     1.567000000
H     1.560000000     1.276000000     2.581000000
H     2.832000000     0.510000000     1.497000000
H     2.155000000     2.094000000     1.084000000
C     1.233000000    -0.122000000    -0.488000000
H     2.292000000    -0.170000000    -0.729000000
C     0.256000000    -0.689000000    -1.270000000
H     0.400000000    -1.049000000    -2.286000000
C    -1.087000000    -0.619000000    -0.866000000
C    -2.168000000    -1.313000000    -1.741000000
O    -2.024000000    -1.523000000    -2.923000000
O    -3.204000000    -1.641000000    -1.209000000
