17
-91.71328
C     0.558000000    -0.839000000    -1.042000000
H     0.940000000    -1.548000000    -1.772000000
C     0.540000000    -1.180000000     0.333000000
H     0.864000000    -2.170000000     0.646000000
C    -0.019000000    -0.286000000     1.246000000
C    -0.026000000    -0.681000000     2.650000000
H     0.881000000    -0.426000000     3.204000000
H    -0.806000000    -0.115000000     3.162000000
H    -0.249000000    -1.749000000     2.681000000
C    -0.561000000     0.914000000     0.762000000
H    -1.183000000     1.465000000     1.462000000
C    -0.436000000     1.275000000    -0.563000000
H    -0.869000000     2.223000000    -0.871000000
C     0.121000000     0.437000000    -1.556000000
C     0.082000000     0.785000000    -3.026000000
O     0.106000000     1.935000000    -3.388000000
O     0.052000000    -0.044000000    -3.927000000
