17
-96.48346
C    -0.829000000     0.596000000     1.171000000
H    -1.301000000     0.979000000     2.072000000
C     0.212000000    -0.390000000     1.324000000
H     0.495000000    -0.737000000     2.315000000
C     0.928000000    -0.885000000     0.204000000
C     2.011000000    -1.820000000     0.181000000
H     1.611000000    -2.803000000    -0.075000000
H     2.651000000    -1.575000000    -0.669000000
H     2.537000000    -1.872000000     1.137000000
C     0.679000000    -0.257000000    -1.016000000
H     1.308000000    -0.422000000    -1.887000000
C    -0.419000000     0.605000000    -1.184000000
H    -0.577000000     0.956000000    -2.201000000
C    -1.190000000     1.031000000    -0.095000000
C    -2.364000000     1.953000000    -0.353000000
O    -2.765000000     2.171000000    -1.513000000
O    -2.979000000     2.462000000     0.593000000
