17
-96.93365
C     0.490000000    -0.657000000    -1.174000000
H     0.781000000    -1.262000000    -2.029000000
C     0.157000000    -1.311000000    -0.014000000
H     0.208000000    -2.394000000     0.072000000
C    -0.249000000    -0.588000000     1.079000000
C    -0.617000000    -1.244000000     2.289000000
H    -0.355000000    -2.304000000     2.253000000
H    -0.079000000    -0.825000000     3.143000000
H    -1.689000000    -1.254000000     2.495000000
C    -0.375000000     0.802000000     0.914000000
H    -0.735000000     1.408000000     1.741000000
C    -0.031000000     1.450000000    -0.232000000
H    -0.225000000     2.516000000    -0.323000000
C     0.396000000     0.733000000    -1.296000000
C     0.695000000     1.457000000    -2.610000000
O     0.566000000     2.673000000    -2.722000000
O     1.055000000     0.799000000    -3.578000000
