17
-87.88970
C    -0.880000000     0.563000000     1.019000000
H    -1.462000000     0.991000000     1.831000000
C     0.206000000    -0.311000000     1.237000000
H     0.501000000    -0.456000000     2.274000000
C     0.944000000    -0.821000000     0.170000000
C     2.053000000    -1.757000000     0.455000000
H     1.626000000    -2.574000000     1.041000000
H     2.584000000    -2.047000000    -0.454000000
H     2.727000000    -1.214000000     1.120000000
C     0.657000000    -0.398000000    -1.122000000
H     1.338000000    -0.640000000    -1.934000000
C    -0.478000000     0.409000000    -1.368000000
H    -0.696000000     0.851000000    -2.337000000
C    -1.240000000     0.908000000    -0.280000000
C    -2.356000000     1.869000000    -0.506000000
O    -2.755000000     2.091000000    -1.566000000
O    -2.767000000     2.530000000     0.424000000
