17
-97.58536
C    -0.410000000     1.145000000     0.739000000
H    -0.676000000     1.977000000     1.386000000
C     0.418000000     0.111000000     1.177000000
H     0.853000000     0.205000000     2.169000000
C     0.752000000    -0.969000000     0.419000000
C     1.921000000    -1.861000000     0.798000000
H     1.763000000    -2.152000000     1.839000000
H     1.914000000    -2.703000000     0.104000000
H     2.858000000    -1.314000000     0.681000000
C     0.143000000    -0.981000000    -0.849000000
H     0.422000000    -1.756000000    -1.559000000
C    -0.869000000    -0.074000000    -1.254000000
H    -1.228000000    -0.140000000    -2.278000000
C    -1.108000000     1.053000000    -0.458000000
C    -2.004000000     2.171000000    -0.859000000
O    -2.480000000     2.185000000    -1.996000000
O    -2.264000000     3.108000000    -0.065000000
