17
-101.03371
C    -1.435000000     0.097000000     0.407000000
H    -2.476000000     0.275000000     0.665000000
C    -0.380000000     0.429000000     1.252000000
H    -0.567000000     0.955000000     2.184000000
C     0.944000000     0.233000000     0.792000000
C     2.076000000     0.735000000     1.606000000
H     2.778000000    -0.094000000     1.716000000
H     2.589000000     1.571000000     1.126000000
H     1.768000000     1.068000000     2.599000000
C     1.185000000    -0.204000000    -0.494000000
H     2.157000000    -0.479000000    -0.896000000
C     0.142000000    -0.614000000    -1.332000000
H     0.372000000    -1.002000000    -2.321000000
C    -1.188000000    -0.444000000    -0.903000000
C    -2.334000000    -0.763000000    -1.877000000
O    -2.175000000    -1.503000000    -2.847000000
O    -3.453000000    -0.260000000    -1.678000000
