17
-88.28087
C    -1.047000000     0.340000000     0.954000000
H    -1.746000000     0.510000000     1.768000000
C     0.341000000     0.220000000     1.264000000
H     0.628000000     0.263000000     2.311000000
C     1.245000000    -0.106000000     0.266000000
C     2.683000000    -0.316000000     0.576000000
H     2.923000000     0.170000000     1.524000000
H     2.909000000    -1.385000000     0.597000000
H     3.317000000     0.259000000    -0.102000000
C     0.752000000    -0.359000000    -0.989000000
H     1.336000000    -0.733000000    -1.826000000
C    -0.610000000    -0.232000000    -1.333000000
H    -1.006000000    -0.397000000    -2.332000000
C    -1.567000000     0.197000000    -0.382000000
C    -2.968000000     0.414000000    -0.672000000
O    -3.297000000     1.052000000    -1.668000000
O    -3.887000000     0.098000000     0.036000000
