17
-89.98624
C    -0.702000000    -0.306000000     1.318000000
H    -1.085000000    -0.575000000     2.299000000
C     0.439000000    -0.944000000     0.757000000
H     0.956000000    -1.683000000     1.364000000
C     0.969000000    -0.615000000    -0.425000000
C     2.243000000    -1.231000000    -0.958000000
H     2.980000000    -0.439000000    -1.105000000
H     2.750000000    -1.853000000    -0.216000000
H     2.092000000    -1.695000000    -1.935000000
C     0.453000000     0.422000000    -1.161000000
H     0.917000000     0.801000000    -2.069000000
C    -0.727000000     1.040000000    -0.731000000
H    -1.268000000     1.747000000    -1.354000000
C    -1.334000000     0.663000000     0.540000000
C    -2.580000000     1.352000000     1.073000000
O    -2.974000000     2.318000000     0.520000000
O    -3.133000000     1.000000000     2.090000000
