17
-95.66692
C    -0.651000000    -0.349000000     1.200000000
H    -1.005000000    -0.889000000     2.074000000
C     0.709000000    -0.250000000     1.037000000
H     1.434000000    -0.554000000     1.788000000
C     1.230000000     0.231000000    -0.147000000
C     2.705000000     0.284000000    -0.292000000
H     2.962000000     1.227000000    -0.779000000
H     3.179000000     0.197000000     0.688000000
H     3.046000000    -0.521000000    -0.947000000
C     0.296000000     0.504000000    -1.177000000
H     0.663000000     0.794000000    -2.158000000
C    -1.059000000     0.313000000    -1.004000000
H    -1.850000000     0.464000000    -1.734000000
C    -1.563000000    -0.013000000     0.199000000
C    -3.005000000    -0.393000000     0.351000000
O    -3.709000000    -0.557000000    -0.625000000
O    -3.376000000    -0.489000000     1.519000000
