17
-97.73141
C    -1.165000000    -0.130000000     0.883000000
H    -1.964000000    -0.320000000     1.595000000
C     0.147000000    -0.273000000     1.307000000
H     0.418000000    -0.460000000     2.343000000
C     1.148000000    -0.196000000     0.320000000
C     2.633000000    -0.303000000     0.717000000
H     3.212000000     0.612000000     0.579000000
H     2.714000000    -0.532000000     1.782000000
H     2.990000000    -1.177000000     0.168000000
C     0.871000000     0.145000000    -0.965000000
H     1.725000000     0.436000000    -1.571000000
C    -0.451000000     0.336000000    -1.364000000
H    -0.758000000     0.772000000    -2.311000000
C    -1.504000000     0.148000000    -0.450000000
C    -2.960000000     0.329000000    -0.879000000
O    -3.258000000     0.577000000    -2.096000000
O    -3.790000000     0.032000000    -0.063000000
