17
-91.35052
C    -0.416000000    -0.641000000     1.212000000
H    -0.634000000    -1.015000000     2.209000000
C     0.896000000    -0.604000000     0.780000000
H     1.725000000    -0.932000000     1.401000000
C     1.148000000     0.022000000    -0.453000000
C     2.575000000     0.294000000    -0.874000000
H     3.188000000    -0.576000000    -0.630000000
H     2.656000000     0.363000000    -1.961000000
H     3.159000000     1.002000000    -0.284000000
C     0.107000000     0.520000000    -1.225000000
H     0.281000000     1.021000000    -2.174000000
C    -1.248000000     0.425000000    -0.724000000
H    -2.045000000     0.826000000    -1.345000000
C    -1.526000000    -0.138000000     0.500000000
C    -2.928000000    -0.227000000     0.980000000
O    -3.638000000     0.718000000     0.772000000
O    -3.299000000    -1.052000000     1.808000000
