17
-98.48400
C    -0.683000000     0.585000000     1.120000000
H    -1.061000000     1.185000000     1.944000000
C     0.695000000     0.283000000     1.060000000
H     1.411000000     0.652000000     1.791000000
C     1.200000000    -0.360000000    -0.073000000
C     2.739000000    -0.415000000    -0.159000000
H     3.068000000    -1.179000000     0.549000000
H     2.951000000    -0.710000000    -1.189000000
H     3.167000000     0.570000000     0.039000000
C     0.350000000    -0.593000000    -1.113000000
H     0.705000000    -0.954000000    -2.074000000
C    -1.047000000    -0.335000000    -1.075000000
H    -1.699000000    -0.590000000    -1.906000000
C    -1.568000000     0.230000000     0.089000000
C    -3.043000000     0.467000000     0.277000000
O    -3.760000000     0.265000000    -0.656000000
O    -3.422000000     0.895000000     1.379000000
