17
-93.83483
C     0.307000000    -0.347000000    -1.353000000
H     0.384000000    -0.722000000    -2.371000000
C     0.395000000    -1.229000000    -0.245000000
H     0.648000000    -2.268000000    -0.439000000
C     0.135000000    -0.750000000     0.984000000
C     0.025000000    -1.743000000     2.123000000
H     0.670000000    -1.351000000     2.912000000
H    -0.937000000    -1.625000000     2.626000000
H     0.328000000    -2.761000000     1.870000000
C    -0.255000000     0.571000000     1.162000000
H    -0.522000000     0.905000000     2.161000000
C    -0.314000000     1.468000000     0.081000000
H    -0.466000000     2.527000000     0.273000000
C    -0.039000000     1.024000000    -1.239000000
C    -0.106000000     1.858000000    -2.472000000
O    -0.295000000     3.094000000    -2.482000000
O     0.039000000     1.354000000    -3.584000000
