17
-91.31081
C    -0.845000000    -0.607000000     1.058000000
H    -1.307000000    -1.327000000     1.728000000
C     0.236000000    -1.250000000     0.425000000
H     0.373000000    -2.324000000     0.520000000
C     0.954000000    -0.571000000    -0.584000000
C     2.138000000    -1.220000000    -1.211000000
H     3.044000000    -0.994000000    -0.645000000
H     2.015000000    -2.294000000    -1.371000000
H     2.231000000    -0.693000000    -2.163000000
C     0.581000000     0.724000000    -0.941000000
H     1.153000000     1.376000000    -1.596000000
C    -0.508000000     1.360000000    -0.196000000
H    -0.824000000     2.325000000    -0.583000000
C    -1.230000000     0.670000000     0.740000000
C    -2.342000000     1.418000000     1.434000000
O    -2.694000000     2.538000000     1.081000000
O    -2.983000000     0.868000000     2.304000000
