17
-94.22554
C    -1.198000000    -0.241000000    -0.821000000
H    -2.022000000    -0.510000000    -1.477000000
C     0.088000000    -0.355000000    -1.273000000
H     0.240000000    -0.641000000    -2.311000000
C     1.130000000     0.020000000    -0.459000000
C     2.528000000     0.016000000    -0.931000000
H     2.584000000     0.410000000    -1.948000000
H     3.176000000     0.549000000    -0.233000000
H     2.863000000    -1.019000000    -1.016000000
C     0.869000000     0.299000000     0.890000000
H     1.665000000     0.336000000     1.629000000
C    -0.407000000     0.237000000     1.346000000
H    -0.548000000     0.397000000     2.412000000
C    -1.484000000     0.033000000     0.513000000
C    -2.824000000     0.136000000     1.066000000
O    -2.870000000     0.511000000     2.209000000
O    -3.797000000    -0.178000000     0.407000000
