17
-97.18211
C    -0.124000000    -0.434000000    -1.396000000
H    -0.122000000    -0.769000000    -2.430000000
C     1.023000000     0.149000000    -0.838000000
H     1.898000000     0.340000000    -1.453000000
C     0.974000000     0.557000000     0.474000000
C     2.270000000     1.100000000     1.156000000
H     2.273000000     2.188000000     1.246000000
H     2.342000000     0.578000000     2.112000000
H     3.162000000     0.855000000     0.576000000
C    -0.177000000     0.316000000     1.224000000
H    -0.140000000     0.626000000     2.266000000
C    -1.305000000    -0.244000000     0.713000000
H    -2.213000000    -0.467000000     1.268000000
C    -1.307000000    -0.612000000    -0.680000000
C    -2.549000000    -1.204000000    -1.234000000
O    -3.418000000    -1.649000000    -0.544000000
O    -2.595000000    -1.333000000    -2.458000000
