17
-82.25446
C     1.079000000    -1.026000000     0.234000000
H     1.863000000    -1.770000000     0.352000000
C     1.236000000     0.167000000    -0.447000000
H     2.147000000     0.351000000    -1.010000000
C     0.182000000     1.038000000    -0.573000000
C     0.220000000     2.239000000    -1.569000000
H     0.323000000     3.190000000    -1.044000000
H     1.099000000     2.309000000    -2.214000000
H    -0.668000000     2.265000000    -2.204000000
C    -1.053000000     0.711000000    -0.091000000
H    -1.938000000     1.326000000    -0.239000000
C    -1.251000000    -0.431000000     0.687000000
H    -2.162000000    -0.572000000     1.263000000
C    -0.160000000    -1.328000000     0.848000000
C    -0.288000000    -2.543000000     1.683000000
O    -1.262000000    -2.685000000     2.340000000
O     0.637000000    -3.248000000     1.991000000
