17
-98.56176
C     0.590000000    -0.650000000    -1.160000000
H     1.179000000    -1.118000000    -1.944000000
C     1.269000000    -0.298000000     0.019000000
H     2.333000000    -0.476000000     0.149000000
C     0.578000000     0.310000000     1.045000000
C     1.292000000     0.605000000     2.302000000
H     0.608000000     1.086000000     3.004000000
H     1.734000000    -0.283000000     2.759000000
H     2.050000000     1.384000000     2.195000000
C    -0.790000000     0.526000000     0.900000000
H    -1.348000000     1.049000000     1.672000000
C    -1.460000000     0.165000000    -0.260000000
H    -2.515000000     0.404000000    -0.371000000
C    -0.759000000    -0.366000000    -1.345000000
C    -1.425000000    -0.656000000    -2.648000000
O    -2.618000000    -0.927000000    -2.709000000
O    -0.718000000    -0.752000000    -3.602000000
