17
-89.69733
C     0.885000000    -0.786000000    -0.933000000
H     1.531000000    -1.305000000    -1.636000000
C     1.329000000    -0.050000000     0.185000000
H     2.402000000     0.108000000     0.259000000
C     0.439000000     0.593000000     0.973000000
C     0.902000000     1.360000000     2.153000000
H     0.835000000     2.447000000     2.079000000
H     0.266000000     1.029000000     2.976000000
H     1.972000000     1.192000000     2.295000000
C    -0.915000000     0.555000000     0.655000000
H    -1.592000000     1.136000000     1.276000000
C    -1.445000000    -0.068000000    -0.425000000
H    -2.522000000    -0.015000000    -0.561000000
C    -0.520000000    -0.832000000    -1.181000000
C    -1.040000000    -1.533000000    -2.397000000
O    -2.208000000    -1.954000000    -2.441000000
O    -0.316000000    -1.885000000    -3.282000000
