17
-94.78608
C     0.105000000    -1.068000000    -1.016000000
H     0.406000000    -1.804000000    -1.756000000
C     1.091000000    -0.160000000    -0.714000000
H     2.011000000    -0.277000000    -1.282000000
C     0.888000000     0.770000000     0.267000000
C     2.001000000     1.625000000     0.787000000
H     2.439000000     0.982000000     1.553000000
H     2.811000000     1.917000000     0.116000000
H     1.719000000     2.501000000     1.374000000
C    -0.349000000     0.938000000     0.864000000
H    -0.540000000     1.684000000     1.632000000
C    -1.373000000     0.098000000     0.530000000
H    -2.407000000     0.203000000     0.847000000
C    -1.124000000    -0.956000000    -0.376000000
C    -2.251000000    -1.920000000    -0.807000000
O    -3.297000000    -1.950000000    -0.198000000
O    -2.136000000    -2.589000000    -1.825000000
