17
-89.94876
C     0.191000000    -1.300000000    -0.642000000
H     0.443000000    -2.141000000    -1.282000000
C     1.149000000    -0.267000000    -0.576000000
H     2.123000000    -0.492000000    -1.001000000
C     0.841000000     0.908000000     0.075000000
C     1.809000000     2.037000000     0.260000000
H     2.286000000     2.019000000     1.243000000
H     2.614000000     1.738000000    -0.415000000
H     1.279000000     2.985000000     0.156000000
C    -0.469000000     1.072000000     0.615000000
H    -0.682000000     2.024000000     1.094000000
C    -1.399000000     0.062000000     0.564000000
H    -2.325000000     0.109000000     1.131000000
C    -1.041000000    -1.151000000    -0.044000000
C    -1.999000000    -2.276000000    -0.188000000
O    -3.178000000    -1.979000000    -0.271000000
O    -1.639000000    -3.341000000    -0.716000000
