17
-96.55711
C     0.741000000    -1.337000000    -0.161000000
H     1.257000000    -2.286000000    -0.045000000
C     1.236000000    -0.176000000     0.425000000
H     2.179000000    -0.199000000     0.966000000
C     0.541000000     0.985000000     0.475000000
C     0.976000000     2.238000000     1.158000000
H     0.222000000     2.619000000     1.850000000
H     1.855000000     2.059000000     1.781000000
H     1.188000000     3.030000000     0.437000000
C    -0.681000000     1.124000000    -0.194000000
H    -1.183000000     2.087000000    -0.205000000
C    -1.188000000    -0.084000000    -0.820000000
H    -2.187000000    -0.019000000    -1.242000000
C    -0.518000000    -1.315000000    -0.717000000
C    -1.287000000    -2.554000000    -1.155000000
O    -2.496000000    -2.568000000    -1.302000000
O    -0.653000000    -3.601000000    -1.258000000
