17
-95.72062
C    -0.522000000    -0.785000000    -1.129000000
H    -0.749000000    -1.523000000    -1.893000000
C     0.696000000    -0.123000000    -1.075000000
H     1.474000000    -0.468000000    -1.752000000
C     1.037000000     0.684000000     0.032000000
C     2.428000000     1.235000000     0.115000000
H     3.024000000     0.939000000    -0.751000000
H     2.456000000     2.324000000     0.193000000
H     2.960000000     0.807000000     0.967000000
C     0.118000000     0.850000000     1.066000000
H     0.458000000     1.337000000     1.976000000
C    -1.097000000     0.111000000     1.010000000
H    -1.769000000     0.184000000     1.862000000
C    -1.398000000    -0.670000000    -0.125000000
C    -2.655000000    -1.476000000    -0.143000000
O    -3.501000000    -1.327000000     0.776000000
O    -2.961000000    -2.106000000    -1.128000000
