17
-81.27441
C    -0.385000000     0.061000000    -1.459000000
H    -0.516000000     0.177000000    -2.532000000
C     0.952000000     0.153000000    -0.930000000
H     1.763000000     0.427000000    -1.601000000
C     1.177000000     0.006000000     0.433000000
C     2.540000000     0.153000000     0.906000000
H     3.325000000    -0.351000000     0.337000000
H     2.635000000     1.236000000     0.801000000
H     2.536000000    -0.186000000     1.944000000
C     0.136000000    -0.194000000     1.280000000
H     0.319000000    -0.204000000     2.351000000
C    -1.146000000    -0.421000000     0.765000000
H    -2.015000000    -0.433000000     1.418000000
C    -1.425000000    -0.160000000    -0.560000000
C    -2.908000000    -0.076000000    -0.919000000
O    -3.810000000    -0.302000000    -0.179000000
O    -3.180000000     0.119000000    -2.062000000
