17
-71.94104
C    -0.184000000     0.836000000    -1.241000000
H    -0.090000000     1.471000000    -2.119000000
C     1.024000000     0.280000000    -0.796000000
H     1.853000000     0.543000000    -1.448000000
C     1.124000000    -0.484000000     0.408000000
C     2.333000000    -1.049000000     0.921000000
H     2.332000000    -0.577000000     1.906000000
H     2.274000000    -2.112000000     1.162000000
H     3.180000000    -0.719000000     0.316000000
C    -0.028000000    -0.617000000     1.140000000
H     0.004000000    -0.939000000     2.178000000
C    -1.277000000    -0.125000000     0.671000000
H    -2.216000000    -0.425000000     1.128000000
C    -1.309000000     0.500000000    -0.587000000
C    -2.641000000     0.929000000    -1.108000000
O    -3.625000000     0.797000000    -0.486000000
O    -2.755000000     1.686000000    -2.050000000
