17
-95.67933
C    -0.132000000     1.159000000    -0.924000000
H    -0.069000000     2.062000000    -1.526000000
C     1.050000000     0.751000000    -0.269000000
H     1.991000000     1.258000000    -0.466000000
C     1.047000000    -0.393000000     0.568000000
C     2.274000000    -0.814000000     1.251000000
H     2.788000000     0.057000000     1.663000000
H     2.131000000    -1.534000000     2.059000000
H     2.921000000    -1.363000000     0.564000000
C    -0.134000000    -1.050000000     0.769000000
H    -0.146000000    -1.925000000     1.413000000
C    -1.350000000    -0.620000000     0.162000000
H    -2.239000000    -1.220000000     0.341000000
C    -1.379000000     0.501000000    -0.686000000
C    -2.628000000     0.950000000    -1.404000000
O    -3.653000000     0.435000000    -1.192000000
O    -2.473000000     1.748000000    -2.322000000
