17
-87.28647
C    -0.467000000    -0.252000000    -1.365000000
H    -0.652000000    -0.414000000    -2.424000000
C     0.672000000    -0.850000000    -0.747000000
H     1.324000000    -1.481000000    -1.345000000
C     1.027000000    -0.549000000     0.585000000
C     2.277000000    -1.036000000     1.260000000
H     3.146000000    -0.409000000     1.047000000
H     2.139000000    -1.177000000     2.334000000
H     2.466000000    -1.998000000     0.780000000
C     0.126000000     0.278000000     1.275000000
H     0.449000000     0.681000000     2.232000000
C    -1.038000000     0.784000000     0.674000000
H    -1.740000000     1.446000000     1.176000000
C    -1.356000000     0.562000000    -0.642000000
C    -2.521000000     1.254000000    -1.409000000
O    -3.077000000     2.175000000    -0.906000000
O    -2.776000000     0.993000000    -2.520000000
