17
-80.04761
C     0.931000000     0.215000000    -1.094000000
H     1.743000000     0.180000000    -1.815000000
C     0.733000000    -0.935000000    -0.455000000
H     1.275000000    -1.816000000    -0.788000000
C    -0.152000000    -1.020000000     0.594000000
C    -0.485000000    -2.356000000     1.195000000
H    -1.013000000    -3.127000000     0.632000000
H     0.470000000    -2.714000000     1.585000000
H    -1.040000000    -2.262000000     2.131000000
C    -0.889000000     0.091000000     1.009000000
H    -1.723000000    -0.024000000     1.696000000
C    -0.622000000     1.330000000     0.384000000
H    -1.015000000     2.229000000     0.851000000
C     0.260000000     1.371000000    -0.727000000
C     0.540000000     2.622000000    -1.438000000
O    -0.200000000     3.574000000    -1.299000000
O     1.185000000     2.640000000    -2.465000000
