17
-86.93893
C    -0.731000000    -0.670000000    -1.058000000
H    -1.210000000    -1.183000000    -1.888000000
C     0.385000000    -1.170000000    -0.336000000
H     0.871000000    -2.121000000    -0.535000000
C     0.914000000    -0.512000000     0.690000000
C     2.190000000    -1.002000000     1.311000000
H     2.654000000    -0.236000000     1.936000000
H     1.806000000    -1.788000000     1.965000000
H     2.885000000    -1.325000000     0.533000000
C     0.417000000     0.753000000     0.978000000
H     0.974000000     1.374000000     1.675000000
C    -0.635000000     1.311000000     0.245000000
H    -0.949000000     2.340000000     0.403000000
C    -1.265000000     0.565000000    -0.751000000
C    -2.404000000     1.072000000    -1.549000000
O    -2.839000000     2.174000000    -1.291000000
O    -3.070000000     0.420000000    -2.329000000
