17
-92.87870
C    -0.251000000    -0.499000000    -1.412000000
H    -0.300000000    -0.809000000    -2.452000000
C     0.393000000    -1.251000000    -0.413000000
H     0.917000000    -2.194000000    -0.546000000
C     0.430000000    -0.740000000     0.923000000
C     1.309000000    -1.431000000     1.957000000
H     2.337000000    -1.071000000     2.030000000
H     0.756000000    -1.403000000     2.898000000
H     1.405000000    -2.483000000     1.681000000
C     0.052000000     0.573000000     1.120000000
H     0.101000000     1.133000000     2.051000000
C    -0.530000000     1.344000000     0.121000000
H    -0.897000000     2.328000000     0.403000000
C    -0.723000000     0.797000000    -1.128000000
C    -1.434000000     1.660000000    -2.161000000
O    -1.721000000     2.815000000    -1.865000000
O    -1.837000000     1.230000000    -3.212000000
