17
-90.27599
C    -0.867000000    -0.295000000    -1.179000000
H    -1.456000000    -0.737000000    -1.979000000
C     0.133000000    -1.056000000    -0.699000000
H     0.225000000    -2.053000000    -1.121000000
C     1.065000000    -0.595000000     0.333000000
C     2.118000000    -1.556000000     0.812000000
H     1.593000000    -2.314000000     1.397000000
H     2.469000000    -2.025000000    -0.110000000
H     2.988000000    -1.132000000     1.319000000
C     0.800000000     0.604000000     0.972000000
H     1.467000000     0.991000000     1.739000000
C    -0.409000000     1.335000000     0.611000000
H    -0.647000000     2.270000000     1.112000000
C    -1.224000000     0.883000000    -0.452000000
C    -2.421000000     1.658000000    -0.824000000
O    -2.804000000     2.578000000    -0.095000000
O    -3.030000000     1.446000000    -1.830000000
