17
-92.37414
C    -0.412000000     0.290000000    -1.364000000
H    -0.528000000     0.422000000    -2.436000000
C     0.695000000    -0.482000000    -0.924000000
H     1.396000000    -0.817000000    -1.684000000
C     0.898000000    -0.667000000     0.365000000
C     2.137000000    -1.561000000     0.694000000
H     2.057000000    -2.163000000     1.601000000
H     2.410000000    -2.287000000    -0.075000000
H     3.004000000    -0.930000000     0.900000000
C     0.093000000    -0.124000000     1.354000000
H     0.225000000    -0.377000000     2.403000000
C    -0.973000000     0.690000000     0.920000000
H    -1.677000000     1.070000000     1.657000000
C    -1.272000000     0.923000000    -0.419000000
C    -2.392000000     1.824000000    -0.902000000
O    -3.048000000     2.352000000    -0.034000000
O    -2.614000000     1.838000000    -2.064000000
