17
-91.13213
C    -0.278000000     0.007000000    -1.411000000
H    -0.319000000     0.156000000    -2.487000000
C     0.450000000    -1.007000000    -0.691000000
H     0.786000000    -1.875000000    -1.253000000
C     0.720000000    -0.786000000     0.654000000
C     1.552000000    -1.870000000     1.259000000
H     0.961000000    -2.687000000     1.678000000
H     2.218000000    -2.266000000     0.490000000
H     2.197000000    -1.488000000     2.054000000
C     0.235000000     0.328000000     1.339000000
H     0.404000000     0.463000000     2.404000000
C    -0.693000000     1.192000000     0.624000000
H    -1.093000000     2.080000000     1.106000000
C    -0.987000000     1.034000000    -0.764000000
C    -1.794000000     2.011000000    -1.507000000
O    -1.986000000     3.049000000    -0.947000000
O    -2.378000000     1.653000000    -2.549000000
