17
-100.97644
C    -0.606000000    -0.340000000    -1.346000000
H    -0.943000000    -0.664000000    -2.328000000
C     0.696000000    -0.718000000    -0.865000000
H     1.334000000    -1.337000000    -1.491000000
C     1.169000000    -0.237000000     0.327000000
C     2.513000000    -0.595000000     0.834000000
H     3.189000000     0.262000000     0.852000000
H     2.390000000    -0.987000000     1.846000000
H     3.001000000    -1.368000000     0.236000000
C     0.333000000     0.524000000     1.139000000
H     0.720000000     0.950000000     2.061000000
C    -0.963000000     0.855000000     0.714000000
H    -1.600000000     1.393000000     1.412000000
C    -1.446000000     0.359000000    -0.441000000
C    -2.874000000     0.629000000    -0.885000000
O    -3.686000000     0.947000000    -0.020000000
O    -3.230000000     0.330000000    -2.040000000
