17
-95.89961
C    -0.702000000     0.009000000    -1.208000000
H    -1.112000000     0.081000000    -2.212000000
C     0.655000000     0.203000000    -1.005000000
H     1.206000000     0.457000000    -1.907000000
C     1.234000000     0.127000000     0.230000000
C     2.713000000     0.380000000     0.268000000
H     3.151000000     0.452000000     1.266000000
H     3.144000000    -0.366000000    -0.404000000
H     2.852000000     1.375000000    -0.159000000
C     0.419000000    -0.131000000     1.288000000
H     0.803000000    -0.202000000     2.302000000
C    -0.974000000    -0.338000000     1.133000000
H    -1.588000000    -0.527000000     2.010000000
C    -1.573000000    -0.259000000    -0.161000000
C    -3.060000000    -0.317000000    -0.408000000
O    -3.789000000    -0.399000000     0.539000000
O    -3.373000000    -0.546000000    -1.564000000
