17
-80.24031
C    -0.712000000    -0.985000000    -0.758000000
H    -1.157000000    -1.857000000    -1.230000000
C     0.497000000    -1.228000000    -0.093000000
H     1.039000000    -2.169000000    -0.052000000
C     1.057000000    -0.186000000     0.563000000
C     2.297000000    -0.402000000     1.319000000
H     2.185000000    -1.041000000     2.197000000
H     3.033000000    -0.916000000     0.697000000
H     2.737000000     0.552000000     1.617000000
C     0.429000000     1.103000000     0.549000000
H     0.813000000     1.892000000     1.191000000
C    -0.771000000     1.390000000    -0.162000000
H    -1.265000000     2.314000000     0.127000000
C    -1.284000000     0.299000000    -0.836000000
C    -2.585000000     0.391000000    -1.517000000
O    -3.083000000     1.421000000    -1.869000000
O    -3.227000000    -0.580000000    -1.751000000
