17
-93.89110
C    -0.233000000    -1.237000000    -0.774000000
H    -0.258000000    -2.162000000    -1.344000000
C     0.798000000    -1.020000000     0.121000000
H     1.536000000    -1.810000000     0.234000000
C     0.909000000     0.185000000     0.824000000
C     2.112000000     0.426000000     1.651000000
H     1.874000000    -0.027000000     2.616000000
H     3.003000000    -0.045000000     1.232000000
H     2.267000000     1.507000000     1.641000000
C     0.001000000     1.249000000     0.649000000
H    -0.037000000     2.211000000     1.153000000
C    -1.089000000     0.973000000    -0.208000000
H    -1.737000000     1.796000000    -0.497000000
C    -1.192000000    -0.251000000    -0.894000000
C    -2.316000000    -0.479000000    -1.926000000
O    -3.461000000    -0.100000000    -1.619000000
O    -2.185000000    -1.211000000    -2.861000000
