17
-94.95542
C    -0.288000000    -0.991000000    -1.109000000
H    -0.372000000    -1.896000000    -1.706000000
C     0.968000000    -0.768000000    -0.429000000
H     1.780000000    -1.461000000    -0.637000000
C     1.057000000     0.170000000     0.587000000
C     2.282000000     0.189000000     1.472000000
H     2.179000000    -0.648000000     2.166000000
H     3.231000000     0.102000000     0.939000000
H     2.535000000     1.005000000     2.152000000
C     0.063000000     1.045000000     0.789000000
H     0.158000000     1.883000000     1.475000000
C    -1.133000000     0.923000000     0.048000000
H    -1.941000000     1.587000000     0.343000000
C    -1.363000000    -0.144000000    -0.842000000
C    -2.697000000    -0.249000000    -1.612000000
O    -3.640000000     0.441000000    -1.264000000
O    -2.815000000    -1.193000000    -2.379000000
