17
-95.11554
C     0.000000000    -0.525000000    -1.385000000
H     0.171000000    -1.009000000    -2.343000000
C     1.127000000    -0.454000000    -0.540000000
H     2.122000000    -0.855000000    -0.713000000
C     1.001000000     0.155000000     0.724000000
C     2.128000000     0.256000000     1.656000000
H     2.305000000    -0.653000000     2.234000000
H     3.038000000     0.503000000     1.105000000
H     1.914000000     0.970000000     2.454000000
C    -0.260000000     0.555000000     1.144000000
H    -0.365000000     1.142000000     2.053000000
C    -1.376000000     0.443000000     0.260000000
H    -2.315000000     0.927000000     0.516000000
C    -1.249000000    -0.131000000    -0.965000000
C    -2.421000000    -0.393000000    -1.800000000
O    -3.499000000     0.123000000    -1.554000000
O    -2.313000000    -1.059000000    -2.843000000
