17
-89.38269
C    -1.107000000     0.913000000    -0.068000000
H    -1.690000000     1.829000000    -0.015000000
C     0.223000000     1.198000000    -0.233000000
H     0.578000000     2.218000000    -0.357000000
C     1.216000000     0.257000000    -0.141000000
C     2.670000000     0.637000000    -0.238000000
H     3.179000000     0.390000000     0.697000000
H     3.127000000     0.075000000    -1.055000000
H     2.711000000     1.685000000    -0.543000000
C     0.836000000    -1.103000000     0.056000000
H     1.543000000    -1.900000000     0.272000000
C    -0.569000000    -1.460000000     0.145000000
H    -0.889000000    -2.489000000     0.291000000
C    -1.558000000    -0.425000000     0.173000000
C    -3.035000000    -0.589000000     0.322000000
O    -3.495000000    -1.659000000     0.464000000
O    -3.732000000     0.418000000     0.233000000
