17
-96.19259
C    -0.576000000     1.140000000    -0.809000000
H    -0.995000000     1.921000000    -1.438000000
C     0.691000000     0.566000000    -1.072000000
H     1.200000000     0.916000000    -1.967000000
C     1.080000000    -0.531000000    -0.263000000
C     2.311000000    -1.370000000    -0.446000000
H     2.942000000    -1.137000000     0.413000000
H     2.142000000    -2.445000000    -0.538000000
H     2.756000000    -1.100000000    -1.406000000
C     0.333000000    -0.896000000     0.829000000
H     0.711000000    -1.670000000     1.493000000
C    -0.852000000    -0.244000000     1.092000000
H    -1.426000000    -0.702000000     1.893000000
C    -1.318000000     0.782000000     0.255000000
C    -2.625000000     1.459000000     0.581000000
O    -3.190000000     1.256000000     1.687000000
O    -3.192000000     2.056000000    -0.312000000
