17
-95.69003
C    -1.190000000     0.666000000     0.685000000
H    -2.021000000     1.017000000     1.292000000
C     0.066000000     0.380000000     1.241000000
H     0.275000000     0.483000000     2.302000000
C     1.109000000    -0.171000000     0.539000000
C     2.376000000    -0.558000000     1.276000000
H     2.348000000    -0.300000000     2.337000000
H     2.579000000    -1.617000000     1.109000000
H     3.258000000    -0.168000000     0.765000000
C     0.875000000    -0.347000000    -0.852000000
H     1.715000000    -0.731000000    -1.426000000
C    -0.306000000    -0.064000000    -1.453000000
H    -0.474000000    -0.361000000    -2.485000000
C    -1.345000000     0.387000000    -0.690000000
C    -2.706000000     0.422000000    -1.350000000
O    -2.940000000    -0.180000000    -2.407000000
O    -3.622000000     1.146000000    -0.891000000
