17
-93.39148
C    -0.966000000     0.567000000     0.875000000
H    -1.581000000     1.200000000     1.510000000
C     0.343000000     0.489000000     1.107000000
H     0.699000000     0.934000000     2.033000000
C     1.198000000    -0.102000000     0.215000000
C     2.604000000    -0.188000000     0.638000000
H     3.006000000    -1.097000000     0.186000000
H     3.157000000     0.699000000     0.322000000
H     2.706000000    -0.367000000     1.711000000
C     0.721000000    -0.639000000    -0.940000000
H     1.451000000    -1.064000000    -1.624000000
C    -0.641000000    -0.602000000    -1.243000000
H    -1.026000000    -0.880000000    -2.221000000
C    -1.493000000     0.063000000    -0.354000000
C    -2.993000000     0.237000000    -0.626000000
O    -3.547000000    -0.314000000    -1.589000000
O    -3.639000000     1.058000000     0.004000000
