17
-81.68889
C    -0.801000000     1.142000000     0.477000000
H    -1.207000000     2.113000000     0.745000000
C     0.545000000     1.218000000     0.149000000
H     1.142000000     2.117000000     0.281000000
C     1.219000000     0.049000000    -0.188000000
C     2.655000000     0.020000000    -0.673000000
H     2.856000000    -0.506000000    -1.609000000
H     2.921000000     1.069000000    -0.818000000
H     3.229000000    -0.530000000     0.077000000
C     0.492000000    -1.131000000    -0.341000000
H     0.942000000    -2.086000000    -0.602000000
C    -0.838000000    -1.194000000    -0.033000000
H    -1.359000000    -2.143000000    -0.131000000
C    -1.533000000    -0.030000000     0.429000000
C    -3.036000000     0.034000000     0.558000000
O    -3.677000000    -0.943000000     0.316000000
O    -3.557000000     0.798000000     1.355000000
