17
-94.52998
C    -0.639000000     0.941000000     0.930000000
H    -1.012000000     1.580000000     1.726000000
C     0.716000000     0.983000000     0.488000000
H     1.399000000     1.682000000     0.964000000
C     1.171000000     0.002000000    -0.399000000
C     2.699000000    -0.095000000    -0.707000000
H     2.848000000    -0.987000000    -1.319000000
H     2.989000000     0.825000000    -1.219000000
H     3.315000000    -0.302000000     0.170000000
C     0.229000000    -0.914000000    -0.917000000
H     0.609000000    -1.743000000    -1.509000000
C    -1.108000000    -0.818000000    -0.593000000
H    -1.768000000    -1.619000000    -0.917000000
C    -1.545000000     0.087000000     0.385000000
C    -2.933000000     0.106000000     0.812000000
O    -3.640000000    -0.882000000     0.822000000
O    -3.335000000     1.160000000     1.286000000
