17
-90.90926
C    -1.206000000     0.479000000     0.796000000
H    -1.946000000     0.824000000     1.514000000
C     0.130000000     0.682000000     1.087000000
H     0.367000000     1.098000000     2.063000000
C     1.165000000     0.064000000     0.359000000
C     2.611000000     0.104000000     0.794000000
H     2.980000000    -0.910000000     0.961000000
H     3.167000000     0.559000000    -0.028000000
H     2.900000000     0.700000000     1.663000000
C     0.863000000    -0.569000000    -0.817000000
H     1.681000000    -0.947000000    -1.425000000
C    -0.468000000    -0.628000000    -1.259000000
H    -0.628000000    -1.005000000    -2.266000000
C    -1.541000000    -0.091000000    -0.471000000
C    -2.973000000    -0.162000000    -0.878000000
O    -3.295000000    -0.585000000    -1.928000000
O    -3.799000000     0.381000000    -0.162000000
