17
-87.57402
C    -0.794000000     1.189000000     0.186000000
H    -1.380000000     2.104000000     0.165000000
C     0.428000000     1.194000000    -0.298000000
H     0.953000000     2.072000000    -0.666000000
C     1.151000000     0.009000000    -0.337000000
C     2.615000000    -0.090000000    -0.707000000
H     2.825000000    -1.038000000    -1.205000000
H     2.900000000     0.671000000    -1.437000000
H     3.224000000     0.078000000     0.185000000
C     0.523000000    -1.204000000     0.002000000
H     1.093000000    -2.105000000    -0.212000000
C    -0.800000000    -1.164000000     0.465000000
H    -1.306000000    -2.107000000     0.654000000
C    -1.454000000     0.035000000     0.500000000
C    -2.926000000     0.081000000     0.858000000
O    -3.596000000    -0.872000000     0.701000000
O    -3.461000000     1.140000000     1.146000000
