17
-100.18069
C     0.214000000     0.463000000     1.389000000
H     0.555000000     0.904000000     2.322000000
C     1.210000000    -0.044000000     0.520000000
H     2.224000000    -0.096000000     0.910000000
C     0.859000000    -0.456000000    -0.728000000
C     1.940000000    -1.027000000    -1.643000000
H     1.591000000    -1.687000000    -2.440000000
H     2.447000000    -0.203000000    -2.151000000
H     2.728000000    -1.631000000    -1.188000000
C    -0.458000000    -0.347000000    -1.158000000
H    -0.812000000    -0.550000000    -2.165000000
C    -1.431000000     0.172000000    -0.337000000
H    -2.456000000     0.341000000    -0.657000000
C    -1.143000000     0.537000000     1.000000000
C    -2.198000000     1.059000000     1.889000000
O    -3.239000000     1.409000000     1.334000000
O    -2.035000000     1.157000000     3.100000000
