17
-98.43405
C     0.920000000     0.783000000     0.819000000
H     1.703000000     1.385000000     1.273000000
C     1.271000000    -0.182000000    -0.127000000
H     2.298000000    -0.453000000    -0.359000000
C     0.285000000    -0.922000000    -0.761000000
C     0.656000000    -1.920000000    -1.853000000
H     0.517000000    -2.948000000    -1.511000000
H    -0.069000000    -1.832000000    -2.666000000
H     1.701000000    -1.884000000    -2.167000000
C    -1.039000000    -0.668000000    -0.457000000
H    -1.851000000    -1.210000000    -0.935000000
C    -1.377000000     0.359000000     0.410000000
H    -2.414000000     0.640000000     0.574000000
C    -0.374000000     1.145000000     1.032000000
C    -0.662000000     2.222000000     2.023000000
O    -1.748000000     2.315000000     2.538000000
O     0.184000000     3.167000000     2.163000000
