17
-93.13768
C     0.959000000     0.724000000     0.842000000
H     1.779000000     1.307000000     1.254000000
C     1.210000000    -0.038000000    -0.279000000
H     2.254000000     0.026000000    -0.572000000
C     0.250000000    -0.624000000    -1.066000000
C     0.763000000    -1.354000000    -2.282000000
H     0.312000000    -0.863000000    -3.147000000
H     1.850000000    -1.443000000    -2.222000000
H     0.294000000    -2.339000000    -2.332000000
C    -1.099000000    -0.539000000    -0.639000000
H    -1.865000000    -1.066000000    -1.203000000
C    -1.390000000     0.219000000     0.514000000
H    -2.441000000     0.248000000     0.790000000
C    -0.401000000     0.835000000     1.314000000
C    -0.750000000     1.494000000     2.644000000
O    -1.841000000     1.341000000     3.120000000
O     0.119000000     2.080000000     3.260000000
