17
-91.94158
C     0.790000000     1.086000000     0.669000000
H     1.405000000     1.875000000     1.093000000
C     1.090000000     0.470000000    -0.515000000
H     1.996000000     0.645000000    -1.090000000
C     0.349000000    -0.583000000    -0.998000000
C     0.675000000    -1.142000000    -2.381000000
H     0.604000000    -2.219000000    -2.546000000
H    -0.178000000    -0.781000000    -2.960000000
H     1.654000000    -0.892000000    -2.795000000
C    -0.876000000    -0.843000000    -0.418000000
H    -1.488000000    -1.610000000    -0.886000000
C    -1.173000000    -0.319000000     0.831000000
H    -2.069000000    -0.632000000     1.361000000
C    -0.303000000     0.609000000     1.447000000
C    -0.688000000     1.270000000     2.722000000
O    -1.811000000     1.009000000     3.215000000
O     0.029000000     2.057000000     3.254000000
