17
-97.05565
C     1.219000000    -0.581000000     0.588000000
H     2.170000000    -0.991000000     0.919000000
C     0.579000000    -1.067000000    -0.535000000
H     1.133000000    -1.858000000    -1.034000000
C    -0.628000000    -0.472000000    -0.968000000
C    -1.241000000    -0.923000000    -2.223000000
H    -2.280000000    -1.216000000    -2.058000000
H    -1.142000000    -0.102000000    -2.936000000
H    -0.707000000    -1.812000000    -2.565000000
C    -1.122000000     0.602000000    -0.267000000
H    -2.050000000     1.051000000    -0.612000000
C    -0.473000000     1.079000000     0.833000000
H    -0.933000000     1.906000000     1.366000000
C     0.716000000     0.517000000     1.232000000
C     1.426000000     1.116000000     2.451000000
O     0.878000000     2.086000000     2.912000000
O     2.448000000     0.669000000     2.904000000
