17
-100.38051
C     1.220000000     0.045000000    -0.870000000
H     2.014000000    -0.057000000    -1.604000000
C    -0.120000000    -0.095000000    -1.335000000
H    -0.333000000    -0.331000000    -2.375000000
C    -1.211000000    -0.115000000    -0.384000000
C    -2.598000000    -0.316000000    -0.848000000
H    -2.900000000     0.472000000    -1.541000000
H    -2.622000000    -1.268000000    -1.382000000
H    -3.251000000    -0.328000000     0.028000000
C    -0.863000000     0.015000000     0.951000000
H    -1.743000000    -0.081000000     1.582000000
C     0.420000000     0.181000000     1.413000000
H     0.538000000     0.399000000     2.472000000
C     1.510000000     0.212000000     0.509000000
C     2.957000000     0.358000000     0.986000000
O     3.069000000     0.915000000     2.089000000
O     3.915000000    -0.009000000     0.312000000
