17
-89.97746
C     1.420000000     0.134000000    -0.200000000
H     2.449000000     0.256000000    -0.528000000
C     0.524000000    -0.275000000    -1.146000000
H     0.832000000    -0.516000000    -2.161000000
C    -0.809000000    -0.452000000    -0.784000000
C    -1.744000000    -0.928000000    -1.785000000
H    -1.382000000    -0.539000000    -2.739000000
H    -1.702000000    -1.995000000    -2.012000000
H    -2.767000000    -0.570000000    -1.650000000
C    -1.305000000    -0.057000000     0.423000000
H    -2.332000000    -0.214000000     0.740000000
C    -0.345000000     0.495000000     1.355000000
H    -0.685000000     0.675000000     2.372000000
C     1.011000000     0.512000000     1.105000000
C     2.000000000     1.034000000     2.053000000
O     1.675000000     1.669000000     3.038000000
O     3.167000000     0.764000000     1.913000000
