17
-98.67412
C    -0.065000000    -0.950000000    -1.132000000
H    -0.087000000    -1.722000000    -1.897000000
C     0.464000000    -1.234000000     0.104000000
H     0.997000000    -2.160000000     0.301000000
C     0.506000000    -0.288000000     1.144000000
C     1.276000000    -0.552000000     2.419000000
H     1.866000000     0.353000000     2.578000000
H     0.666000000    -0.632000000     3.322000000
H     1.930000000    -1.424000000     2.355000000
C    -0.116000000     0.955000000     0.846000000
H    -0.179000000     1.753000000     1.581000000
C    -0.625000000     1.228000000    -0.409000000
H    -1.104000000     2.199000000    -0.506000000
C    -0.680000000     0.254000000    -1.462000000
C    -1.390000000     0.631000000    -2.738000000
O    -1.853000000     1.799000000    -2.903000000
O    -1.613000000    -0.216000000    -3.606000000
