17
-96.63598
C     1.155000000    -0.591000000     0.832000000
H     2.069000000    -0.966000000     1.284000000
C     1.200000000     0.592000000     0.105000000
H     2.094000000     1.200000000    -0.007000000
C     0.044000000     1.122000000    -0.552000000
C     0.204000000     2.209000000    -1.556000000
H     0.505000000     1.748000000    -2.499000000
H    -0.746000000     2.746000000    -1.599000000
H     1.039000000     2.890000000    -1.380000000
C    -1.166000000     0.393000000    -0.546000000
H    -2.003000000     0.691000000    -1.173000000
C    -1.240000000    -0.748000000     0.257000000
H    -2.193000000    -1.264000000     0.180000000
C    -0.096000000    -1.246000000     0.928000000
C    -0.246000000    -2.583000000     1.695000000
O    -1.283000000    -3.174000000     1.622000000
O     0.670000000    -3.020000000     2.403000000
