17
-87.83500
C     1.370000000    -0.368000000     0.277000000
H     2.326000000    -0.853000000     0.459000000
C     0.756000000    -0.474000000    -0.952000000
H     1.240000000    -0.748000000    -1.886000000
C    -0.585000000     0.042000000    -1.090000000
C    -1.161000000     0.268000000    -2.452000000
H    -0.362000000     0.702000000    -3.057000000
H    -1.454000000    -0.670000000    -2.927000000
H    -1.946000000     1.019000000    -2.552000000
C    -1.273000000     0.413000000     0.041000000
H    -2.296000000     0.742000000    -0.119000000
C    -0.677000000     0.283000000     1.338000000
H    -1.288000000     0.351000000     2.235000000
C     0.736000000     0.073000000     1.407000000
C     1.394000000    -0.101000000     2.731000000
O     0.652000000    -0.402000000     3.683000000
O     2.573000000    -0.278000000     2.868000000
