17
-93.69007
C     1.157000000     0.862000000    -0.001000000
H     1.935000000     1.611000000    -0.127000000
C     0.319000000     0.643000000    -1.083000000
H     0.501000000     1.144000000    -2.030000000
C    -0.749000000    -0.220000000    -0.930000000
C    -1.599000000    -0.433000000    -2.168000000
H    -1.773000000    -1.503000000    -2.296000000
H    -2.560000000     0.080000000    -2.099000000
H    -1.108000000    -0.253000000    -3.126000000
C    -0.966000000    -0.834000000     0.260000000
H    -1.825000000    -1.465000000     0.470000000
C    -0.212000000    -0.510000000     1.399000000
H    -0.404000000    -0.978000000     2.361000000
C     0.895000000     0.325000000     1.265000000
C     1.866000000     0.440000000     2.411000000
O     1.650000000     0.005000000     3.497000000
O     2.871000000     1.090000000     2.205000000
