17
-87.84744
C     1.551000000     0.050000000    -0.153000000
H     2.610000000     0.083000000    -0.397000000
C     0.589000000    -0.340000000    -1.127000000
H     0.897000000    -0.783000000    -2.071000000
C    -0.756000000    -0.368000000    -0.861000000
C    -1.752000000    -0.808000000    -1.860000000
H    -2.726000000    -0.934000000    -1.382000000
H    -1.697000000    -0.020000000    -2.614000000
H    -1.417000000    -1.740000000    -2.321000000
C    -1.212000000    -0.127000000     0.381000000
H    -2.271000000    -0.274000000     0.580000000
C    -0.393000000     0.428000000     1.305000000
H    -0.848000000     0.659000000     2.264000000
C     0.996000000     0.539000000     1.050000000
C     1.920000000     1.072000000     2.082000000
O     1.375000000     1.558000000     3.061000000
O     3.129000000     1.001000000     2.066000000
