17
-96.42020
C    -0.494000000     0.220000000     1.435000000
H    -0.827000000     0.342000000     2.462000000
C    -0.554000000    -0.972000000     0.706000000
H    -0.866000000    -1.864000000     1.244000000
C    -0.087000000    -1.072000000    -0.605000000
C    -0.187000000    -2.393000000    -1.347000000
H    -0.038000000    -3.262000000    -0.703000000
H    -1.229000000    -2.457000000    -1.668000000
H     0.408000000    -2.472000000    -2.260000000
C     0.488000000     0.032000000    -1.185000000
H     0.876000000    -0.060000000    -2.196000000
C     0.569000000     1.272000000    -0.533000000
H     1.007000000     2.178000000    -0.944000000
C     0.055000000     1.367000000     0.751000000
C     0.231000000     2.682000000     1.421000000
O     0.979000000     3.470000000     0.928000000
O    -0.332000000     2.996000000     2.489000000
