17
-98.38918
C     1.527000000    -0.056000000     0.211000000
H     2.605000000     0.040000000     0.109000000
C     0.814000000    -0.536000000    -0.892000000
H     1.271000000    -0.879000000    -1.816000000
C    -0.589000000    -0.574000000    -0.930000000
C    -1.381000000    -1.030000000    -2.185000000
H    -1.317000000    -2.120000000    -2.219000000
H    -2.426000000    -0.747000000    -2.044000000
H    -1.032000000    -0.539000000    -3.096000000
C    -1.312000000    -0.059000000     0.173000000
H    -2.394000000     0.052000000     0.187000000
C    -0.599000000     0.572000000     1.205000000
H    -1.165000000     0.991000000     2.032000000
C     0.832000000     0.564000000     1.226000000
C     1.508000000     1.255000000     2.378000000
O     1.070000000     2.286000000     2.843000000
O     2.586000000     0.772000000     2.818000000
