17
-93.49080
C    -0.017000000     0.172000000     1.540000000
H    -0.061000000     0.104000000     2.624000000
C    -0.386000000    -0.961000000     0.790000000
H    -0.808000000    -1.811000000     1.320000000
C    -0.382000000    -0.987000000    -0.592000000
C    -1.048000000    -2.063000000    -1.424000000
H    -0.396000000    -2.315000000    -2.263000000
H    -1.236000000    -2.934000000    -0.793000000
H    -1.993000000    -1.674000000    -1.811000000
C     0.176000000     0.081000000    -1.257000000
H     0.382000000    -0.106000000    -2.307000000
C     0.588000000     1.221000000    -0.618000000
H     1.024000000     2.029000000    -1.200000000
C     0.466000000     1.260000000     0.775000000
C     1.051000000     2.352000000     1.527000000
O     1.727000000     3.189000000     0.946000000
O     0.915000000     2.435000000     2.739000000
