17
-92.92987
C     1.035000000     0.539000000     0.876000000
H     1.824000000     0.996000000     1.468000000
C    -0.320000000     0.703000000     1.085000000
H    -0.695000000     1.289000000     1.920000000
C    -1.201000000     0.152000000     0.144000000
C    -2.718000000     0.469000000     0.256000000
H    -2.865000000     1.402000000    -0.292000000
H    -3.326000000    -0.378000000    -0.069000000
H    -3.108000000     0.721000000     1.244000000
C    -0.689000000    -0.539000000    -0.985000000
H    -1.388000000    -0.870000000    -1.748000000
C     0.660000000    -0.645000000    -1.145000000
H     1.074000000    -1.245000000    -1.952000000
C     1.531000000    -0.258000000    -0.155000000
C     3.027000000    -0.607000000    -0.248000000
O     3.439000000    -1.285000000    -1.147000000
O     3.715000000    -0.450000000     0.747000000
