17
-98.91819
C     0.150000000     0.559000000     1.349000000
H     0.197000000     0.837000000     2.399000000
C    -1.017000000    -0.049000000     0.909000000
H    -1.876000000    -0.137000000     1.571000000
C    -0.996000000    -0.634000000    -0.401000000
C    -2.094000000    -1.509000000    -0.903000000
H    -2.978000000    -1.363000000    -0.279000000
H    -2.293000000    -1.169000000    -1.921000000
H    -1.777000000    -2.554000000    -0.875000000
C     0.099000000    -0.403000000    -1.273000000
H     0.116000000    -0.878000000    -2.251000000
C     1.179000000     0.326000000    -0.827000000
H     2.093000000     0.423000000    -1.408000000
C     1.209000000     0.798000000     0.509000000
C     2.323000000     1.691000000     0.976000000
O     3.214000000     2.186000000     0.233000000
O     2.446000000     1.871000000     2.200000000
