17
-90.21026
C     0.460000000    -0.176000000     1.396000000
H     0.690000000    -0.183000000     2.458000000
C    -0.513000000    -0.938000000     0.786000000
H    -1.134000000    -1.694000000     1.260000000
C    -0.791000000    -0.702000000    -0.594000000
C    -1.844000000    -1.524000000    -1.327000000
H    -1.540000000    -2.573000000    -1.317000000
H    -2.835000000    -1.465000000    -0.872000000
H    -1.936000000    -1.166000000    -2.355000000
C    -0.108000000     0.254000000    -1.252000000
H    -0.387000000     0.470000000    -2.280000000
C     0.848000000     1.056000000    -0.584000000
H     1.351000000     1.888000000    -1.070000000
C     1.092000000     0.813000000     0.702000000
C     1.963000000     1.758000000     1.498000000
O     2.326000000     2.740000000     0.964000000
O     2.360000000     1.435000000     2.590000000
