17
-90.54992
C     0.001000000     0.560000000     1.430000000
H    -0.077000000     0.882000000     2.466000000
C    -0.997000000    -0.197000000     0.786000000
H    -1.833000000    -0.592000000     1.357000000
C    -0.858000000    -0.693000000    -0.507000000
C    -1.900000000    -1.651000000    -1.156000000
H    -2.931000000    -1.470000000    -0.845000000
H    -1.837000000    -1.629000000    -2.246000000
H    -1.731000000    -2.666000000    -0.788000000
C     0.273000000    -0.420000000    -1.197000000
H     0.414000000    -0.835000000    -2.192000000
C     1.234000000     0.485000000    -0.651000000
H     2.028000000     0.936000000    -1.241000000
C     1.078000000     0.974000000     0.602000000
C     2.072000000     1.930000000     1.200000000
O     3.170000000     2.047000000     0.691000000
O     1.889000000     2.345000000     2.299000000
