17
-90.93684
C     0.482000000     0.317000000     1.406000000
H     0.761000000     0.612000000     2.415000000
C    -0.617000000     0.876000000     0.773000000
H    -1.275000000     1.501000000     1.371000000
C    -1.011000000     0.471000000    -0.477000000
C    -2.299000000     0.978000000    -1.065000000
H    -2.173000000     1.545000000    -1.990000000
H    -2.973000000     0.164000000    -1.339000000
H    -2.767000000     1.657000000    -0.349000000
C    -0.252000000    -0.533000000    -1.155000000
H    -0.495000000    -0.919000000    -2.142000000
C     0.876000000    -1.080000000    -0.580000000
H     1.536000000    -1.678000000    -1.203000000
C     1.267000000    -0.560000000     0.629000000
C     2.565000000    -1.056000000     1.176000000
O     3.220000000    -1.853000000     0.493000000
O     3.154000000    -0.440000000     2.030000000
