17
-90.34654
C     0.446000000     0.283000000     1.374000000
H     0.503000000     0.361000000     2.457000000
C    -0.739000000     0.710000000     0.780000000
H    -1.426000000     1.216000000     1.454000000
C    -1.066000000     0.379000000    -0.497000000
C    -2.287000000     0.883000000    -1.223000000
H    -2.349000000     0.488000000    -2.239000000
H    -3.261000000     0.727000000    -0.754000000
H    -2.206000000     1.972000000    -1.262000000
C    -0.066000000    -0.311000000    -1.215000000
H    -0.272000000    -0.557000000    -2.254000000
C     1.111000000    -0.716000000    -0.652000000
H     1.782000000    -1.280000000    -1.296000000
C     1.351000000    -0.483000000     0.647000000
C     2.482000000    -1.128000000     1.400000000
O     3.103000000    -2.038000000     0.923000000
O     2.890000000    -0.507000000     2.355000000
