17
-95.67214
C     0.412000000     0.455000000     1.356000000
H     0.666000000     1.023000000     2.247000000
C    -0.812000000     0.767000000     0.685000000
H    -1.530000000     1.441000000     1.146000000
C    -1.085000000     0.189000000    -0.492000000
C    -2.251000000     0.614000000    -1.294000000
H    -2.652000000     1.559000000    -0.922000000
H    -2.133000000     0.702000000    -2.376000000
H    -3.012000000    -0.152000000    -1.134000000
C    -0.139000000    -0.569000000    -1.125000000
H    -0.320000000    -0.853000000    -2.159000000
C     1.080000000    -0.864000000    -0.561000000
H     1.785000000    -1.465000000    -1.129000000
C     1.348000000    -0.393000000     0.706000000
C     2.576000000    -0.738000000     1.504000000
O     3.181000000    -1.738000000     1.156000000
O     2.890000000     0.029000000     2.391000000
