17
-94.98814
C     1.248000000     0.908000000     0.082000000
H     2.016000000     1.678000000     0.092000000
C    -0.017000000     1.112000000     0.644000000
H    -0.218000000     2.024000000     1.199000000
C    -1.089000000     0.200000000     0.592000000
C    -2.461000000     0.482000000     1.227000000
H    -3.248000000    -0.205000000     0.908000000
H    -2.423000000     0.381000000     2.314000000
H    -2.767000000     1.523000000     1.103000000
C    -0.878000000    -0.938000000    -0.236000000
H    -1.686000000    -1.663000000    -0.300000000
C     0.333000000    -1.145000000    -0.832000000
H     0.461000000    -2.045000000    -1.428000000
C     1.411000000    -0.269000000    -0.698000000
C     2.751000000    -0.650000000    -1.354000000
O     2.785000000    -1.303000000    -2.342000000
O     3.785000000    -0.095000000    -0.965000000
