17
-97.84618
C     0.797000000     0.722000000     1.000000000
H     1.305000000     1.341000000     1.735000000
C    -0.498000000     1.007000000     0.675000000
H    -0.948000000     1.858000000     1.179000000
C    -1.186000000     0.217000000    -0.212000000
C    -2.676000000     0.413000000    -0.603000000
H    -3.167000000    -0.563000000    -0.611000000
H    -3.278000000     1.011000000     0.084000000
H    -2.732000000     0.840000000    -1.606000000
C    -0.453000000    -0.812000000    -0.839000000
H    -0.959000000    -1.494000000    -1.518000000
C     0.891000000    -1.046000000    -0.603000000
H     1.460000000    -1.816000000    -1.117000000
C     1.532000000    -0.248000000     0.323000000
C     2.956000000    -0.404000000     0.617000000
O     3.517000000    -1.158000000    -0.130000000
O     3.446000000     0.125000000     1.632000000
