17
-89.36710
C     0.905000000     1.168000000     0.187000000
H     1.535000000     2.014000000     0.450000000
C     0.281000000     0.431000000     1.159000000
H     0.460000000     0.802000000     2.165000000
C    -0.524000000    -0.724000000     0.875000000
C    -1.149000000    -1.473000000     2.093000000
H    -2.222000000    -1.505000000     1.890000000
H    -0.891000000    -2.532000000     2.167000000
H    -0.999000000    -0.907000000     3.014000000
C    -0.764000000    -1.056000000    -0.453000000
H    -1.569000000    -1.747000000    -0.691000000
C    -0.165000000    -0.255000000    -1.444000000
H    -0.329000000    -0.502000000    -2.490000000
C     0.674000000     0.883000000    -1.146000000
C     1.383000000     1.617000000    -2.275000000
O     1.077000000     1.443000000    -3.446000000
O     2.293000000     2.343000000    -2.061000000
