17
-93.07187
C     0.152000000     1.147000000    -0.841000000
H     0.139000000     2.041000000    -1.459000000
C    -0.789000000     1.021000000     0.189000000
H    -1.612000000     1.720000000     0.317000000
C    -0.724000000    -0.110000000     0.955000000
C    -1.795000000    -0.292000000     1.948000000
H    -2.671000000    -0.875000000     1.658000000
H    -1.385000000    -0.680000000     2.883000000
H    -2.188000000     0.679000000     2.258000000
C     0.146000000    -1.116000000     0.656000000
H     0.123000000    -1.988000000     1.305000000
C     1.003000000    -1.023000000    -0.384000000
H     1.771000000    -1.779000000    -0.532000000
C     1.022000000     0.142000000    -1.191000000
C     1.962000000     0.326000000    -2.283000000
O     2.634000000    -0.639000000    -2.692000000
O     2.213000000     1.425000000    -2.779000000
