17
-101.15229
C     0.519000000     1.381000000     0.200000000
H     0.892000000     2.381000000     0.406000000
C    -0.060000000     0.592000000     1.182000000
H    -0.159000000     0.982000000     2.192000000
C    -0.540000000    -0.683000000     0.859000000
C    -1.111000000    -1.416000000     2.002000000
H    -0.396000000    -1.700000000     2.777000000
H    -1.965000000    -0.831000000     2.350000000
H    -1.501000000    -2.370000000     1.641000000
C    -0.407000000    -1.197000000    -0.410000000
H    -0.792000000    -2.200000000    -0.570000000
C     0.122000000    -0.429000000    -1.437000000
H     0.211000000    -0.834000000    -2.442000000
C     0.606000000     0.851000000    -1.130000000
C     1.315000000     1.643000000    -2.248000000
O     1.355000000     1.156000000    -3.371000000
O     1.919000000     2.682000000    -2.002000000
