17
-90.07044
C     1.272000000     0.587000000    -0.421000000
H     2.189000000     1.152000000    -0.566000000
C     0.948000000     0.107000000     0.855000000
H     1.691000000     0.271000000     1.631000000
C    -0.273000000    -0.393000000     1.154000000
C    -0.625000000    -0.662000000     2.610000000
H     0.183000000    -0.848000000     3.321000000
H    -1.292000000     0.131000000     2.953000000
H    -1.130000000    -1.630000000     2.643000000
C    -1.205000000    -0.444000000     0.117000000
H    -2.158000000    -0.935000000     0.297000000
C    -0.881000000     0.036000000    -1.178000000
H    -1.673000000    -0.170000000    -1.893000000
C     0.395000000     0.477000000    -1.496000000
C     0.750000000     0.712000000    -2.926000000
O    -0.047000000     0.517000000    -3.825000000
O     1.851000000     1.097000000    -3.281000000
