17
-93.33658
C     1.236000000     0.801000000    -0.041000000
H     2.241000000     1.197000000     0.083000000
C     0.597000000     0.341000000     1.111000000
H     0.923000000     0.553000000     2.126000000
C    -0.535000000    -0.479000000     0.962000000
C    -1.136000000    -1.049000000     2.202000000
H    -0.378000000    -1.297000000     2.948000000
H    -1.729000000    -0.263000000     2.674000000
H    -1.785000000    -1.920000000     2.090000000
C    -1.137000000    -0.621000000    -0.266000000
H    -2.040000000    -1.209000000    -0.408000000
C    -0.468000000    -0.160000000    -1.369000000
H    -0.900000000    -0.177000000    -2.366000000
C     0.759000000     0.484000000    -1.272000000
C     1.377000000     1.017000000    -2.512000000
O     0.829000000     0.789000000    -3.570000000
O     2.148000000     1.993000000    -2.395000000
