17
-98.52939
C     0.683000000     1.092000000    -0.720000000
H     1.230000000     1.917000000    -1.170000000
C     0.570000000     1.003000000     0.666000000
H     1.058000000     1.742000000     1.298000000
C    -0.021000000    -0.144000000     1.229000000
C    -0.183000000    -0.178000000     2.743000000
H     0.372000000     0.676000000     3.137000000
H    -1.244000000    -0.282000000     2.980000000
H     0.424000000    -1.042000000     3.022000000
C    -0.524000000    -1.125000000     0.401000000
H    -0.953000000    -2.039000000     0.804000000
C    -0.541000000    -1.006000000    -0.952000000
H    -0.910000000    -1.761000000    -1.642000000
C     0.074000000     0.120000000    -1.530000000
C    -0.021000000     0.325000000    -3.027000000
O    -0.625000000    -0.515000000    -3.665000000
O     0.613000000     1.219000000    -3.573000000
