17
-99.77890
C     1.145000000     0.819000000    -0.441000000
H     2.059000000     1.356000000    -0.678000000
C     0.841000000     0.434000000     0.879000000
H     1.511000000     0.588000000     1.721000000
C    -0.324000000    -0.247000000     1.139000000
C    -0.535000000    -0.760000000     2.526000000
H    -1.510000000    -0.545000000     2.969000000
H    -0.458000000    -1.846000000     2.608000000
H     0.245000000    -0.420000000     3.211000000
C    -1.190000000    -0.609000000     0.112000000
H    -2.093000000    -1.195000000     0.259000000
C    -0.824000000    -0.293000000    -1.178000000
H    -1.623000000    -0.448000000    -1.899000000
C     0.312000000     0.488000000    -1.450000000
C     0.717000000     0.823000000    -2.899000000
O    -0.050000000     0.486000000    -3.812000000
O     1.779000000     1.374000000    -3.066000000
