17
-86.17213
C     1.075000000     0.610000000    -0.712000000
H     1.911000000     1.094000000    -1.210000000
C     1.209000000    -0.203000000     0.392000000
H     2.181000000    -0.322000000     0.865000000
C     0.148000000    -0.730000000     0.979000000
C     0.300000000    -1.551000000     2.272000000
H     1.120000000    -1.126000000     2.854000000
H    -0.562000000    -1.335000000     2.907000000
H     0.427000000    -2.613000000     2.050000000
C    -1.094000000    -0.433000000     0.438000000
H    -1.939000000    -0.830000000     0.995000000
C    -1.308000000     0.391000000    -0.655000000
H    -2.324000000     0.536000000    -1.012000000
C    -0.199000000     0.909000000    -1.269000000
C    -0.287000000     1.598000000    -2.625000000
O    -1.298000000     1.704000000    -3.271000000
O     0.639000000     2.301000000    -2.992000000
