17
-89.21903
C     0.947000000    -0.221000000    -1.105000000
H     1.708000000    -0.495000000    -1.831000000
C     0.629000000    -1.078000000    -0.049000000
H     1.211000000    -1.996000000    -0.051000000
C    -0.238000000    -0.807000000     0.990000000
C    -0.575000000    -1.805000000     2.051000000
H    -1.248000000    -2.523000000     1.578000000
H     0.290000000    -2.397000000     2.359000000
H    -1.009000000    -1.282000000     2.906000000
C    -0.724000000     0.504000000     0.943000000
H    -1.338000000     0.914000000     1.741000000
C    -0.503000000     1.423000000    -0.109000000
H    -0.905000000     2.418000000     0.067000000
C     0.314000000     1.015000000    -1.201000000
C     0.476000000     1.882000000    -2.421000000
O    -0.265000000     2.799000000    -2.539000000
O     1.238000000     1.654000000    -3.332000000
