17
-88.79051
C    -0.197000000     0.826000000    -1.242000000
H    -0.265000000     1.266000000    -2.233000000
C    -0.853000000    -0.372000000    -0.970000000
H    -1.499000000    -0.795000000    -1.735000000
C    -0.566000000    -1.084000000     0.180000000
C    -1.121000000    -2.488000000     0.319000000
H    -0.319000000    -3.107000000     0.726000000
H    -1.834000000    -2.470000000     1.146000000
H    -1.520000000    -3.025000000    -0.544000000
C     0.175000000    -0.457000000     1.207000000
H     0.326000000    -0.972000000     2.152000000
C     0.709000000     0.805000000     1.023000000
H     1.416000000     1.217000000     1.739000000
C     0.614000000     1.438000000    -0.261000000
C     1.457000000     2.684000000    -0.444000000
O     2.276000000     3.145000000     0.320000000
O     1.197000000     3.383000000    -1.383000000
