17
-97.42494
C     0.366000000     0.297000000    -1.353000000
H     0.591000000     0.379000000    -2.413000000
C    -0.484000000    -0.747000000    -0.915000000
H    -0.727000000    -1.598000000    -1.545000000
C    -0.796000000    -0.883000000     0.416000000
C    -1.424000000    -2.199000000     0.743000000
H    -2.379000000    -2.234000000     0.214000000
H    -0.819000000    -2.973000000     0.266000000
H    -1.499000000    -2.353000000     1.821000000
C    -0.390000000     0.100000000     1.318000000
H    -0.674000000    -0.005000000     2.361000000
C     0.453000000     1.167000000     0.920000000
H     0.779000000     1.923000000     1.631000000
C     0.847000000     1.259000000    -0.403000000
C     1.752000000     2.350000000    -0.909000000
O     2.066000000     3.254000000    -0.145000000
O     2.330000000     2.257000000    -2.012000000
