17
-94.61248
C     0.788000000    -0.332000000    -1.229000000
H     1.074000000    -0.794000000    -2.170000000
C     0.280000000    -1.172000000    -0.264000000
H     0.329000000    -2.239000000    -0.461000000
C    -0.480000000    -0.761000000     0.804000000
C    -1.107000000    -1.806000000     1.699000000
H    -1.618000000    -1.310000000     2.527000000
H    -1.770000000    -2.495000000     1.173000000
H    -0.308000000    -2.414000000     2.131000000
C    -0.638000000     0.587000000     1.038000000
H    -1.251000000     0.904000000     1.878000000
C    -0.127000000     1.476000000     0.121000000
H    -0.249000000     2.535000000     0.335000000
C     0.613000000     1.054000000    -0.976000000
C     1.277000000     1.992000000    -1.962000000
O     1.259000000     3.205000000    -1.764000000
O     1.920000000     1.565000000    -2.887000000
