17
-97.55106
C    -0.230000000    -0.803000000    -1.267000000
H    -0.363000000    -1.419000000    -2.152000000
C     0.959000000    -0.776000000    -0.478000000
H     1.794000000    -1.422000000    -0.738000000
C     1.039000000    -0.075000000     0.745000000
C     2.229000000    -0.204000000     1.617000000
H     2.030000000    -0.995000000     2.343000000
H     3.158000000    -0.465000000     1.106000000
H     2.399000000     0.710000000     2.190000000
C    -0.084000000     0.737000000     1.077000000
H    -0.102000000     1.222000000     2.049000000
C    -1.200000000     0.824000000     0.208000000
H    -2.116000000     1.305000000     0.542000000
C    -1.243000000     0.081000000    -0.973000000
C    -2.404000000     0.364000000    -1.862000000
O    -3.395000000     1.028000000    -1.447000000
O    -2.463000000    -0.114000000    -2.967000000
