17
-92.12480
C     0.420000000     0.484000000    -1.298000000
H     0.886000000     0.710000000    -2.253000000
C     0.013000000    -0.790000000    -1.042000000
H    -0.040000000    -1.465000000    -1.892000000
C    -0.262000000    -1.146000000     0.267000000
C    -0.876000000    -2.492000000     0.451000000
H    -1.783000000    -2.591000000    -0.150000000
H    -0.132000000    -3.238000000     0.166000000
H    -1.063000000    -2.668000000     1.513000000
C    -0.279000000    -0.230000000     1.270000000
H    -0.665000000    -0.542000000     2.237000000
C     0.098000000     1.040000000     1.020000000
H    -0.028000000     1.787000000     1.799000000
C     0.517000000     1.417000000    -0.273000000
C     1.034000000     2.836000000    -0.535000000
O     0.947000000     3.643000000     0.383000000
O     1.217000000     3.247000000    -1.671000000
