17
-98.80982
C    -0.496000000     1.090000000    -0.870000000
H    -0.889000000     1.860000000    -1.529000000
C    -0.795000000    -0.308000000    -0.975000000
H    -1.372000000    -0.697000000    -1.810000000
C    -0.298000000    -1.183000000    -0.017000000
C    -0.632000000    -2.686000000    -0.188000000
H    -0.610000000    -3.342000000     0.685000000
H    -1.681000000    -2.776000000    -0.479000000
H     0.000000000    -3.140000000    -0.954000000
C     0.548000000    -0.722000000     0.950000000
H     0.958000000    -1.376000000     1.715000000
C     0.899000000     0.633000000     0.970000000
H     1.543000000     1.039000000     1.746000000
C     0.393000000     1.533000000     0.097000000
C     0.691000000     2.995000000     0.188000000
O     1.199000000     3.368000000     1.246000000
O     0.534000000     3.720000000    -0.773000000
