17
-95.14105
C    -0.392000000     1.286000000    -0.712000000
H    -0.775000000     2.142000000    -1.262000000
C    -1.088000000     0.101000000    -0.752000000
H    -1.977000000     0.020000000    -1.372000000
C    -0.756000000    -1.011000000     0.001000000
C    -1.402000000    -2.435000000    -0.215000000
H    -0.757000000    -3.180000000     0.256000000
H    -2.441000000    -2.476000000     0.119000000
H    -1.260000000    -2.689000000    -1.267000000
C     0.470000000    -0.915000000     0.712000000
H     0.743000000    -1.771000000     1.324000000
C     1.239000000     0.230000000     0.754000000
H     2.173000000     0.277000000     1.310000000
C     0.762000000     1.374000000     0.103000000
C     1.639000000     2.668000000     0.232000000
O     2.571000000     2.637000000     1.008000000
O     1.245000000     3.750000000    -0.240000000
