17
-85.30439
C     0.123000000     0.733000000    -1.239000000
H     0.368000000     1.052000000    -2.248000000
C    -0.634000000    -0.409000000    -1.041000000
H    -1.049000000    -1.044000000    -1.819000000
C    -0.733000000    -0.939000000     0.235000000
C    -1.418000000    -2.310000000     0.307000000
H    -1.395000000    -2.773000000     1.295000000
H    -2.467000000    -2.366000000     0.009000000
H    -0.989000000    -3.078000000    -0.341000000
C    -0.050000000    -0.317000000     1.308000000
H    -0.037000000    -0.854000000     2.253000000
C     0.670000000     0.856000000     1.128000000
H     1.217000000     1.169000000     2.014000000
C     0.776000000     1.452000000    -0.170000000
C     1.557000000     2.710000000    -0.441000000
O     2.285000000     3.162000000     0.380000000
O     1.781000000     2.953000000    -1.625000000
