17
-92.11993
C    -0.542000000     1.089000000    -0.818000000
H    -0.940000000     1.883000000    -1.445000000
C    -0.972000000    -0.248000000    -0.928000000
H    -1.704000000    -0.444000000    -1.707000000
C    -0.264000000    -1.173000000    -0.196000000
C    -0.731000000    -2.674000000    -0.218000000
H    -1.242000000    -3.005000000    -1.125000000
H     0.145000000    -3.309000000    -0.069000000
H    -1.444000000    -2.878000000     0.585000000
C     0.571000000    -0.742000000     0.875000000
H     1.115000000    -1.447000000     1.497000000
C     0.960000000     0.567000000     0.973000000
H     1.735000000     0.888000000     1.665000000
C     0.320000000     1.537000000     0.169000000
C     0.858000000     2.911000000     0.215000000
O     1.612000000     3.234000000     1.114000000
O     0.526000000     3.808000000    -0.592000000
