17
-82.13299
C    -0.527000000     0.196000000    -1.325000000
H    -0.691000000     0.329000000    -2.392000000
C    -0.076000000    -1.007000000    -0.829000000
H     0.023000000    -1.784000000    -1.583000000
C     0.313000000    -1.109000000     0.505000000
C     0.926000000    -2.425000000     1.046000000
H     1.994000000    -2.244000000     1.184000000
H     0.523000000    -2.494000000     2.059000000
H     0.684000000    -3.333000000     0.490000000
C     0.330000000     0.067000000     1.276000000
H     0.753000000     0.008000000     2.276000000
C    -0.236000000     1.296000000     0.774000000
H    -0.398000000     2.196000000     1.361000000
C    -0.491000000     1.405000000    -0.594000000
C    -0.902000000     2.612000000    -1.245000000
O    -1.096000000     3.568000000    -0.570000000
O    -1.123000000     2.711000000    -2.427000000
