17
-96.89491
C     0.328000000     0.424000000    -1.334000000
H     0.675000000     0.658000000    -2.337000000
C     0.533000000    -0.917000000    -0.876000000
H     0.980000000    -1.629000000    -1.565000000
C     0.158000000    -1.156000000     0.431000000
C     0.107000000    -2.522000000     0.899000000
H    -0.885000000    -2.870000000     1.195000000
H     0.298000000    -3.261000000     0.117000000
H     0.794000000    -2.605000000     1.743000000
C    -0.324000000    -0.124000000     1.237000000
H    -0.721000000    -0.337000000     2.227000000
C    -0.451000000     1.160000000     0.779000000
H    -0.787000000     1.904000000     1.497000000
C    -0.138000000     1.433000000    -0.522000000
C    -0.213000000     2.899000000    -1.027000000
O    -0.425000000     3.823000000    -0.262000000
O     0.079000000     3.119000000    -2.203000000
