17
-93.56494
C     0.870000000     0.380000000    -1.176000000
H     1.484000000     0.420000000    -2.072000000
C     0.570000000    -0.939000000    -0.736000000
H     1.004000000    -1.812000000    -1.216000000
C    -0.180000000    -1.159000000     0.430000000
C    -0.612000000    -2.577000000     0.922000000
H    -1.670000000    -2.787000000     0.754000000
H    -0.120000000    -3.300000000     0.267000000
H    -0.323000000    -2.802000000     1.950000000
C    -0.752000000    -0.056000000     1.089000000
H    -1.431000000    -0.193000000     1.927000000
C    -0.439000000     1.233000000     0.611000000
H    -0.910000000     2.101000000     1.065000000
C     0.362000000     1.512000000    -0.451000000
C     0.651000000     2.942000000    -0.973000000
O     0.434000000     3.917000000    -0.295000000
O     1.070000000     3.123000000    -2.100000000
