17
-92.63224
C    -1.304000000     0.764000000    -0.128000000
H    -2.263000000     1.265000000    -0.029000000
C    -1.137000000    -0.545000000     0.277000000
H    -2.013000000    -1.089000000     0.622000000
C     0.125000000    -1.180000000     0.348000000
C     0.232000000    -2.700000000     0.758000000
H     0.585000000    -3.272000000    -0.103000000
H     0.988000000    -2.920000000     1.514000000
H    -0.724000000    -3.169000000     0.998000000
C     1.191000000    -0.434000000     0.055000000
H     2.206000000    -0.790000000     0.210000000
C     1.076000000     0.901000000    -0.345000000
H     1.986000000     1.393000000    -0.680000000
C    -0.229000000     1.530000000    -0.477000000
C    -0.226000000     3.002000000    -0.899000000
O     0.555000000     3.803000000    -0.375000000
O    -1.048000000     3.435000000    -1.745000000
