17
-89.43275
C    -0.875000000     1.204000000     0.276000000
H    -1.608000000     1.972000000     0.508000000
C    -1.082000000    -0.054000000     0.758000000
H    -1.782000000    -0.376000000     1.524000000
C    -0.181000000    -1.061000000     0.444000000
C    -0.355000000    -2.394000000     1.066000000
H    -1.325000000    -2.869000000     0.901000000
H     0.298000000    -3.184000000     0.690000000
H    -0.209000000    -2.312000000     2.145000000
C     0.839000000    -0.895000000    -0.434000000
H     1.543000000    -1.710000000    -0.578000000
C     1.049000000     0.342000000    -0.923000000
H     1.885000000     0.505000000    -1.598000000
C     0.174000000     1.405000000    -0.660000000
C     0.453000000     2.744000000    -1.218000000
O     1.600000000     3.218000000    -1.242000000
O    -0.417000000     3.459000000    -1.654000000
