17
-91.64146
C    -0.632000000     1.139000000    -0.684000000
H    -1.045000000     2.069000000    -1.065000000
C    -1.197000000     0.397000000     0.363000000
H    -2.092000000     0.750000000     0.868000000
C    -0.551000000    -0.716000000     0.867000000
C    -1.127000000    -1.400000000     2.010000000
H    -0.621000000    -0.946000000     2.865000000
H    -2.191000000    -1.186000000     2.128000000
H    -1.016000000    -2.485000000     1.943000000
C     0.696000000    -1.123000000     0.331000000
H     1.018000000    -2.076000000     0.743000000
C     1.238000000    -0.347000000    -0.692000000
H     2.234000000    -0.602000000    -1.046000000
C     0.645000000     0.813000000    -1.222000000
C     1.326000000     1.615000000    -2.262000000
O     2.532000000     1.480000000    -2.510000000
O     0.779000000     2.616000000    -2.629000000
