17
-99.85397
C    -0.511000000     1.406000000    -0.381000000
H    -1.015000000     2.346000000    -0.594000000
C    -1.148000000     0.402000000     0.402000000
H    -2.151000000     0.639000000     0.747000000
C    -0.577000000    -0.799000000     0.714000000
C    -1.304000000    -1.785000000     1.578000000
H    -2.109000000    -2.277000000     1.029000000
H    -0.653000000    -2.500000000     2.087000000
H    -1.738000000    -1.207000000     2.397000000
C     0.699000000    -1.114000000     0.230000000
H     1.126000000    -2.027000000     0.637000000
C     1.379000000    -0.140000000    -0.532000000
H     2.324000000    -0.358000000    -1.022000000
C     0.741000000     1.053000000    -0.848000000
C     1.448000000     1.915000000    -1.848000000
O     2.552000000     1.519000000    -2.269000000
O     0.929000000     2.926000000    -2.320000000
