17
-100.17693
C    -0.234000000     1.455000000    -0.351000000
H    -0.545000000     2.469000000    -0.589000000
C    -0.979000000     0.721000000     0.538000000
H    -1.809000000     1.215000000     1.037000000
C    -0.709000000    -0.591000000     0.802000000
C    -1.527000000    -1.437000000     1.728000000
H    -2.558000000    -1.084000000     1.792000000
H    -1.545000000    -2.460000000     1.347000000
H    -1.066000000    -1.477000000     2.718000000
C     0.386000000    -1.268000000     0.223000000
H     0.585000000    -2.322000000     0.397000000
C     1.143000000    -0.524000000    -0.714000000
H     1.947000000    -1.029000000    -1.243000000
C     0.882000000     0.850000000    -0.975000000
C     1.775000000     1.624000000    -1.955000000
O     2.628000000     1.007000000    -2.545000000
O     1.619000000     2.843000000    -2.207000000
