17
-92.66523
C    -0.613000000     0.951000000     0.963000000
H    -1.135000000     1.553000000     1.703000000
C    -0.183000000    -0.357000000     1.309000000
H    -0.341000000    -0.773000000     2.301000000
C     0.439000000    -1.100000000     0.294000000
C     0.850000000    -2.464000000     0.550000000
H     1.809000000    -2.710000000     0.091000000
H     0.942000000    -2.586000000     1.632000000
H     0.005000000    -3.092000000     0.259000000
C     0.638000000    -0.606000000    -0.973000000
H     1.027000000    -1.261000000    -1.748000000
C     0.226000000     0.663000000    -1.297000000
H     0.371000000     1.054000000    -2.301000000
C    -0.407000000     1.456000000    -0.302000000
C    -1.062000000     2.728000000    -0.727000000
O    -1.075000000     3.058000000    -1.866000000
O    -1.496000000     3.486000000     0.115000000
