17
-89.16215
C    -1.063000000     0.596000000     0.845000000
H    -1.734000000     0.956000000     1.621000000
C    -0.213000000    -0.418000000     1.220000000
H    -0.444000000    -0.940000000     2.145000000
C     0.694000000    -0.986000000     0.279000000
C     1.483000000    -2.200000000     0.709000000
H     2.013000000    -1.891000000     1.612000000
H     0.742000000    -2.929000000     1.044000000
H     2.013000000    -2.580000000    -0.167000000
C     0.942000000    -0.363000000    -0.916000000
H     1.713000000    -0.614000000    -1.641000000
C     0.070000000     0.686000000    -1.272000000
H     0.244000000     1.130000000    -2.249000000
C    -0.875000000     1.234000000    -0.390000000
C    -1.679000000     2.419000000    -0.801000000
O    -1.647000000     2.785000000    -1.986000000
O    -2.258000000     3.118000000    -0.047000000
