17
-89.21348
C    -0.148000000    -0.887000000    -1.234000000
H    -0.276000000    -1.525000000    -2.105000000
C    -0.772000000    -1.098000000     0.040000000
H    -1.466000000    -1.919000000     0.203000000
C    -0.553000000    -0.214000000     1.089000000
C    -1.113000000    -0.495000000     2.458000000
H    -1.935000000     0.135000000     2.806000000
H    -1.488000000    -1.511000000     2.595000000
H    -0.361000000    -0.349000000     3.236000000
C     0.257000000     0.904000000     0.854000000
H     0.565000000     1.535000000     1.683000000
C     0.839000000     1.124000000    -0.375000000
H     1.550000000     1.940000000    -0.474000000
C     0.613000000     0.260000000    -1.410000000
C     1.234000000     0.621000000    -2.755000000
O     2.130000000     1.427000000    -2.867000000
O     0.932000000     0.059000000    -3.742000000
