17
-92.52216
C    -0.698000000     1.092000000    -0.689000000
H    -1.324000000     1.904000000    -1.050000000
C    -1.260000000     0.211000000     0.242000000
H    -2.333000000     0.215000000     0.415000000
C    -0.463000000    -0.770000000     0.792000000
C    -1.214000000    -1.708000000     1.723000000
H    -1.080000000    -1.460000000     2.778000000
H    -2.273000000    -1.790000000     1.469000000
H    -0.708000000    -2.672000000     1.633000000
C     0.845000000    -0.922000000     0.480000000
H     1.430000000    -1.694000000     0.973000000
C     1.394000000    -0.039000000    -0.457000000
H     2.460000000    -0.062000000    -0.669000000
C     0.666000000     1.080000000    -0.945000000
C     1.337000000     1.965000000    -1.995000000
O     2.578000000     2.021000000    -2.050000000
O     0.639000000     2.626000000    -2.653000000
