17
-96.85458
C    -0.299000000     1.294000000    -0.598000000
H    -0.676000000     2.213000000    -1.041000000
C    -1.202000000     0.355000000    -0.017000000
H    -2.244000000     0.659000000     0.023000000
C    -0.835000000    -0.838000000     0.496000000
C    -1.822000000    -1.706000000     1.176000000
H    -2.393000000    -1.092000000     1.875000000
H    -2.543000000    -2.251000000     0.563000000
H    -1.360000000    -2.509000000     1.754000000
C     0.542000000    -1.108000000     0.425000000
H     0.987000000    -2.031000000     0.787000000
C     1.444000000    -0.264000000    -0.269000000
H     2.470000000    -0.618000000    -0.331000000
C     1.066000000     0.998000000    -0.720000000
C     2.040000000     2.059000000    -1.223000000
O     3.192000000     1.691000000    -1.486000000
O     1.634000000     3.153000000    -1.422000000
