17
-99.15439
C    -0.260000000     1.409000000     0.107000000
H    -0.554000000     2.455000000     0.104000000
C    -1.175000000     0.418000000     0.493000000
H    -2.116000000     0.782000000     0.898000000
C    -0.759000000    -0.917000000     0.442000000
C    -1.795000000    -1.918000000     0.728000000
H    -2.782000000    -1.480000000     0.563000000
H    -1.715000000    -2.819000000     0.116000000
H    -1.721000000    -2.177000000     1.786000000
C     0.480000000    -1.274000000    -0.070000000
H     0.804000000    -2.305000000    -0.182000000
C     1.394000000    -0.249000000    -0.501000000
H     2.346000000    -0.514000000    -0.955000000
C     1.039000000     1.115000000    -0.388000000
C     2.032000000     2.205000000    -0.849000000
O     3.105000000     1.897000000    -1.412000000
O     1.676000000     3.374000000    -0.882000000
