17
-97.26712
C    -0.711000000     1.344000000    -0.233000000
H    -1.300000000     2.216000000    -0.507000000
C    -1.328000000     0.120000000     0.173000000
H    -2.414000000     0.103000000     0.211000000
C    -0.583000000    -0.996000000     0.536000000
C    -1.199000000    -2.357000000     0.823000000
H    -2.047000000    -2.530000000     0.157000000
H    -0.473000000    -3.109000000     0.506000000
H    -1.585000000    -2.453000000     1.840000000
C     0.848000000    -0.899000000     0.443000000
H     1.468000000    -1.692000000     0.854000000
C     1.454000000     0.249000000    -0.073000000
H     2.516000000     0.223000000    -0.305000000
C     0.683000000     1.358000000    -0.458000000
C     1.370000000     2.473000000    -1.162000000
O     2.590000000     2.599000000    -1.124000000
O     0.710000000     3.346000000    -1.687000000
