17
-86.59800
C     0.219000000     1.460000000    -0.344000000
H     0.364000000     2.518000000    -0.547000000
C    -0.862000000     0.934000000     0.331000000
H    -1.591000000     1.593000000     0.795000000
C    -0.963000000    -0.442000000     0.506000000
C    -2.245000000    -0.919000000     1.234000000
H    -2.509000000    -0.098000000     1.904000000
H    -3.002000000    -1.116000000     0.472000000
H    -2.035000000    -1.856000000     1.754000000
C    -0.053000000    -1.396000000     0.109000000
H    -0.246000000    -2.447000000     0.306000000
C     1.074000000    -0.803000000    -0.466000000
H     1.820000000    -1.502000000    -0.836000000
C     1.255000000     0.564000000    -0.725000000
C     2.527000000     1.011000000    -1.323000000
O     3.381000000     0.293000000    -1.791000000
O     2.865000000     2.198000000    -1.376000000
