17
-94.98544
C     0.012000000     0.255000000    -1.493000000
H    -0.063000000     0.374000000    -2.571000000
C    -1.108000000     0.068000000    -0.695000000
H    -2.117000000     0.187000000    -1.083000000
C    -0.981000000    -0.178000000     0.624000000
C    -2.218000000    -0.307000000     1.425000000
H    -2.823000000    -1.170000000     1.140000000
H    -1.984000000    -0.467000000     2.480000000
H    -2.780000000     0.629000000     1.394000000
C     0.228000000    -0.266000000     1.276000000
H     0.268000000    -0.350000000     2.359000000
C     1.372000000    -0.091000000     0.496000000
H     2.277000000    -0.053000000     1.097000000
C     1.280000000     0.175000000    -0.880000000
C     2.545000000     0.293000000    -1.664000000
O     3.659000000     0.124000000    -1.152000000
O     2.436000000     0.774000000    -2.760000000
