17
-96.56989
C    -0.020000000     0.455000000    -1.423000000
H    -0.150000000     0.795000000    -2.447000000
C    -0.989000000    -0.345000000    -0.771000000
H    -1.822000000    -0.714000000    -1.363000000
C    -0.819000000    -0.701000000     0.548000000
C    -1.756000000    -1.653000000     1.158000000
H    -2.044000000    -1.360000000     2.170000000
H    -2.656000000    -1.690000000     0.540000000
H    -1.351000000    -2.667000000     1.145000000
C     0.206000000    -0.203000000     1.354000000
H     0.268000000    -0.637000000     2.349000000
C     1.166000000     0.653000000     0.727000000
H     1.948000000     1.027000000     1.383000000
C     1.089000000     0.874000000    -0.653000000
C     2.067000000     1.758000000    -1.404000000
O     3.130000000     2.116000000    -0.877000000
O     1.725000000     2.292000000    -2.442000000
