17
-87.53366
C     0.163000000     1.410000000    -0.509000000
H     0.212000000     2.484000000    -0.666000000
C    -0.988000000     0.787000000     0.053000000
H    -1.883000000     1.396000000     0.147000000
C    -0.944000000    -0.463000000     0.539000000
C    -2.201000000    -1.042000000     1.161000000
H    -2.629000000    -1.869000000     0.591000000
H    -2.009000000    -1.419000000     2.168000000
H    -2.989000000    -0.299000000     1.299000000
C     0.188000000    -1.257000000     0.443000000
H     0.087000000    -2.313000000     0.683000000
C     1.290000000    -0.710000000    -0.174000000
H     2.092000000    -1.404000000    -0.414000000
C     1.298000000     0.585000000    -0.709000000
C     2.450000000     1.191000000    -1.421000000
O     3.398000000     0.544000000    -1.744000000
O     2.461000000     2.372000000    -1.440000000
