17
-85.41258
C     0.575000000     1.133000000     0.583000000
H     0.976000000     1.884000000     1.259000000
C    -0.561000000     0.518000000     1.054000000
H    -0.966000000     0.744000000     2.037000000
C    -1.034000000    -0.554000000     0.393000000
C    -2.140000000    -1.356000000     0.891000000
H    -2.161000000    -2.386000000     0.531000000
H    -2.047000000    -1.426000000     1.977000000
H    -3.060000000    -0.813000000     0.664000000
C    -0.516000000    -0.829000000    -0.847000000
H    -0.930000000    -1.572000000    -1.524000000
C     0.676000000    -0.218000000    -1.311000000
H     1.021000000    -0.343000000    -2.334000000
C     1.243000000     0.762000000    -0.532000000
C     2.584000000     1.422000000    -0.930000000
O     3.176000000     1.010000000    -1.870000000
O     3.162000000     2.030000000    -0.036000000
