17
-90.45857
C    -0.283000000     1.060000000    -0.991000000
H    -0.613000000     1.762000000    -1.752000000
C    -1.274000000     0.171000000    -0.463000000
H    -2.294000000     0.189000000    -0.839000000
C    -0.870000000    -0.772000000     0.496000000
C    -1.684000000    -1.913000000     0.949000000
H    -1.322000000    -2.694000000     0.277000000
H    -1.646000000    -2.196000000     2.003000000
H    -2.723000000    -1.723000000     0.672000000
C     0.466000000    -0.752000000     0.940000000
H     0.805000000    -1.587000000     1.546000000
C     1.353000000     0.199000000     0.551000000
H     2.412000000     0.033000000     0.730000000
C     1.018000000     1.126000000    -0.464000000
C     1.989000000     2.071000000    -1.080000000
O     3.118000000     2.077000000    -0.742000000
O     1.549000000     2.949000000    -1.828000000
