17
-92.79879
C    -0.102000000    -0.028000000    -1.428000000
H    -0.216000000    -0.240000000    -2.487000000
C    -0.905000000    -0.751000000    -0.509000000
H    -1.769000000    -1.325000000    -0.834000000
C    -0.627000000    -0.689000000     0.780000000
C    -1.624000000    -1.349000000     1.754000000
H    -1.628000000    -0.740000000     2.661000000
H    -2.616000000    -1.304000000     1.302000000
H    -1.353000000    -2.367000000     2.043000000
C     0.385000000     0.156000000     1.299000000
H     0.638000000     0.227000000     2.353000000
C     1.117000000     0.850000000     0.324000000
H     1.932000000     1.461000000     0.703000000
C     0.918000000     0.834000000    -1.061000000
C     1.704000000     1.623000000    -2.034000000
O     2.731000000     2.131000000    -1.644000000
O     1.417000000     1.514000000    -3.228000000
