17
-92.30745
C    -1.379000000    -0.590000000     0.204000000
H    -2.312000000    -1.011000000     0.570000000
C    -0.159000000    -1.097000000     0.677000000
H    -0.314000000    -1.972000000     1.304000000
C     1.037000000    -0.488000000     0.425000000
C     2.262000000    -1.022000000     1.032000000
H     2.157000000    -1.193000000     2.105000000
H     2.622000000    -1.893000000     0.482000000
H     2.999000000    -0.216000000     1.028000000
C     1.088000000     0.699000000    -0.294000000
H     1.977000000     1.311000000    -0.416000000
C    -0.060000000     1.171000000    -0.931000000
H     0.024000000     2.078000000    -1.525000000
C    -1.315000000     0.549000000    -0.579000000
C    -2.528000000     1.052000000    -1.242000000
O    -2.580000000     2.252000000    -1.522000000
O    -3.527000000     0.375000000    -1.310000000
