17
-88.15939
C    -0.317000000     0.786000000    -1.152000000
H    -0.663000000     1.417000000    -1.967000000
C    -1.238000000     0.349000000    -0.212000000
H    -2.287000000     0.582000000    -0.376000000
C    -0.813000000    -0.449000000     0.789000000
C    -1.795000000    -0.876000000     1.883000000
H    -1.508000000    -0.289000000     2.758000000
H    -2.831000000    -0.768000000     1.552000000
H    -1.563000000    -1.901000000     2.180000000
C     0.507000000    -0.764000000     0.920000000
H     0.859000000    -1.395000000     1.732000000
C     1.403000000    -0.394000000    -0.086000000
H     2.384000000    -0.832000000     0.079000000
C     1.049000000     0.481000000    -1.066000000
C     1.995000000     1.145000000    -2.099000000
O     3.168000000     1.115000000    -1.866000000
O     1.658000000     1.787000000    -3.071000000
