17
-93.30391
C    -0.745000000     0.785000000    -1.010000000
H    -1.348000000     1.443000000    -1.631000000
C    -1.183000000     0.500000000     0.297000000
H    -2.022000000     0.998000000     0.776000000
C    -0.452000000    -0.346000000     1.131000000
C    -0.897000000    -0.578000000     2.598000000
H    -0.106000000    -1.051000000     3.183000000
H    -1.159000000     0.342000000     3.125000000
H    -1.793000000    -1.201000000     2.603000000
C     0.881000000    -0.684000000     0.641000000
H     1.573000000    -1.191000000     1.308000000
C     1.300000000    -0.348000000    -0.672000000
H     2.249000000    -0.772000000    -0.989000000
C     0.454000000     0.273000000    -1.509000000
C     0.933000000     0.536000000    -2.907000000
O     2.153000000     0.563000000    -3.123000000
O     0.158000000     0.725000000    -3.821000000
