17
-99.01368
C    -0.357000000     1.103000000    -0.911000000
H    -0.650000000     2.026000000    -1.405000000
C    -1.071000000     0.696000000     0.219000000
H    -1.932000000     1.315000000     0.459000000
C    -0.652000000    -0.438000000     0.926000000
C    -1.443000000    -0.714000000     2.189000000
H    -2.382000000    -1.255000000     2.049000000
H    -0.901000000    -1.427000000     2.813000000
H    -1.700000000     0.229000000     2.676000000
C     0.472000000    -1.105000000     0.560000000
H     0.831000000    -2.000000000     1.062000000
C     1.198000000    -0.680000000    -0.520000000
H     2.164000000    -1.119000000    -0.757000000
C     0.745000000     0.407000000    -1.263000000
C     1.644000000     0.868000000    -2.383000000
O     2.841000000     0.469000000    -2.446000000
O     1.186000000     1.630000000    -3.271000000
