17
-97.53644
C    -0.521000000    -0.407000000    -1.331000000
H    -0.909000000    -0.486000000    -2.343000000
C    -0.452000000     0.908000000    -0.822000000
H    -0.762000000     1.709000000    -1.488000000
C     0.128000000     1.147000000     0.412000000
C     0.158000000     2.591000000     0.940000000
H    -0.745000000     3.118000000     0.624000000
H     0.083000000     2.637000000     2.028000000
H     1.093000000     3.043000000     0.603000000
C     0.613000000     0.128000000     1.158000000
H     1.134000000     0.274000000     2.101000000
C     0.494000000    -1.192000000     0.725000000
H     0.964000000    -1.975000000     1.314000000
C    -0.116000000    -1.497000000    -0.545000000
C    -0.397000000    -2.937000000    -0.997000000
O    -0.330000000    -3.851000000    -0.177000000
O    -0.436000000    -3.213000000    -2.195000000
