17
-92.64707
C    -1.278000000    -0.495000000    -0.733000000
H    -2.154000000    -0.717000000    -1.337000000
C    -0.902000000     0.841000000    -0.571000000
H    -1.620000000     1.616000000    -0.828000000
C     0.221000000     1.188000000     0.222000000
C     0.670000000     2.610000000     0.561000000
H    -0.069000000     3.323000000     0.189000000
H     0.600000000     2.728000000     1.644000000
H     1.699000000     2.861000000     0.296000000
C     1.074000000     0.186000000     0.647000000
H     1.972000000     0.367000000     1.233000000
C     0.792000000    -1.126000000     0.397000000
H     1.543000000    -1.870000000     0.651000000
C    -0.416000000    -1.504000000    -0.225000000
C    -0.684000000    -2.965000000    -0.508000000
O     0.196000000    -3.800000000    -0.402000000
O    -1.643000000    -3.249000000    -1.235000000
