17
-95.47693
C    -0.119000000    -0.808000000    -1.196000000
H     0.079000000    -1.383000000    -2.097000000
C     0.386000000     0.514000000    -1.155000000
H     0.694000000     0.878000000    -2.132000000
C     0.344000000     1.246000000     0.066000000
C     1.194000000     2.507000000     0.255000000
H     1.205000000     2.994000000    -0.722000000
H     0.724000000     3.238000000     0.916000000
H     2.210000000     2.147000000     0.431000000
C    -0.342000000     0.615000000     1.147000000
H    -0.325000000     1.117000000     2.111000000
C    -0.738000000    -0.728000000     1.100000000
H    -1.108000000    -1.159000000     2.026000000
C    -0.683000000    -1.399000000    -0.103000000
C    -1.090000000    -2.877000000    -0.224000000
O    -1.659000000    -3.336000000     0.760000000
O    -0.775000000    -3.561000000    -1.187000000
