17
-84.84442
C    -0.822000000    -0.427000000    -1.171000000
H    -1.423000000    -0.640000000    -2.051000000
C    -0.501000000     0.867000000    -0.839000000
H    -0.715000000     1.703000000    -1.499000000
C     0.126000000     1.121000000     0.384000000
C     0.371000000     2.550000000     0.722000000
H    -0.188000000     2.831000000     1.618000000
H     1.435000000     2.683000000     0.930000000
H     0.116000000     3.160000000    -0.146000000
C     0.591000000     0.116000000     1.165000000
H     1.194000000     0.315000000     2.047000000
C     0.351000000    -1.166000000     0.794000000
H     0.706000000    -1.974000000     1.429000000
C    -0.334000000    -1.404000000    -0.369000000
C    -0.377000000    -2.817000000    -0.888000000
O    -0.331000000    -3.729000000    -0.085000000
O    -0.191000000    -3.185000000    -2.035000000
