17
-96.86868
C    -1.220000000    -0.132000000    -0.931000000
H    -2.094000000    -0.187000000    -1.575000000
C    -1.096000000     0.714000000     0.199000000
H    -1.978000000     1.302000000     0.439000000
C     0.063000000     0.771000000     0.997000000
C     0.081000000     1.565000000     2.225000000
H     0.443000000     0.988000000     3.079000000
H     0.759000000     2.418000000     2.155000000
H    -0.878000000     2.020000000     2.480000000
C     1.151000000    -0.001000000     0.582000000
H     2.091000000     0.037000000     1.126000000
C     1.163000000    -0.739000000    -0.538000000
H     1.958000000    -1.397000000    -0.880000000
C    -0.061000000    -0.949000000    -1.246000000
C    -0.132000000    -1.923000000    -2.386000000
O     0.947000000    -2.212000000    -2.916000000
O    -1.201000000    -2.279000000    -2.808000000
