17
-92.70366
C    -1.311000000    -0.590000000    -0.026000000
H    -2.291000000    -1.061000000    -0.033000000
C    -0.069000000    -1.256000000    -0.147000000
H     0.011000000    -2.339000000    -0.187000000
C     1.117000000    -0.549000000    -0.190000000
C     2.370000000    -1.385000000    -0.280000000
H     2.503000000    -2.011000000     0.605000000
H     2.262000000    -1.980000000    -1.189000000
H     3.241000000    -0.727000000    -0.304000000
C     1.079000000     0.829000000    -0.046000000
H     2.002000000     1.381000000     0.115000000
C    -0.167000000     1.456000000     0.153000000
H    -0.135000000     2.523000000     0.361000000
C    -1.366000000     0.755000000     0.098000000
C    -2.695000000     1.433000000     0.276000000
O    -2.872000000     2.654000000     0.081000000
O    -3.683000000     0.872000000     0.721000000
