17
-97.01401
C    -1.248000000    -0.414000000    -0.757000000
H    -2.223000000    -0.677000000    -1.159000000
C    -1.093000000     0.729000000     0.086000000
H    -2.011000000     1.220000000     0.397000000
C     0.066000000     0.987000000     0.762000000
C     0.188000000     2.170000000     1.709000000
H    -0.751000000     2.724000000     1.640000000
H     0.507000000     1.728000000     2.655000000
H     0.949000000     2.877000000     1.373000000
C     1.172000000     0.175000000     0.571000000
H     2.090000000     0.366000000     1.119000000
C     1.127000000    -0.845000000    -0.369000000
H     2.028000000    -1.396000000    -0.628000000
C    -0.100000000    -1.187000000    -1.032000000
C    -0.188000000    -2.492000000    -1.880000000
O     0.717000000    -3.315000000    -1.996000000
O    -1.234000000    -2.647000000    -2.487000000
