17
-95.06876
C    -0.315000000    -1.097000000    -0.932000000
H    -0.768000000    -1.776000000    -1.650000000
C    -0.317000000     0.288000000    -1.238000000
H    -0.643000000     0.636000000    -2.214000000
C     0.029000000     1.200000000    -0.271000000
C     0.000000000     2.705000000    -0.531000000
H    -0.895000000     3.005000000     0.017000000
H     0.842000000     3.195000000    -0.037000000
H    -0.107000000     3.017000000    -1.572000000
C     0.265000000     0.735000000     0.976000000
H     0.373000000     1.465000000     1.775000000
C     0.308000000    -0.634000000     1.306000000
H     0.699000000    -0.923000000     2.278000000
C     0.058000000    -1.571000000     0.296000000
C     0.088000000    -3.045000000     0.533000000
O     0.360000000    -3.437000000     1.677000000
O     0.027000000    -3.759000000    -0.419000000
