17
-88.60152
C    -0.377000000    -0.968000000    -1.077000000
H    -0.715000000    -1.616000000    -1.881000000
C    -0.436000000     0.441000000    -1.153000000
H    -0.657000000     0.951000000    -2.087000000
C    -0.066000000     1.239000000    -0.030000000
C    -0.058000000     2.779000000    -0.143000000
H     0.117000000     3.333000000     0.781000000
H     0.671000000     3.068000000    -0.903000000
H    -0.998000000     3.070000000    -0.618000000
C     0.290000000     0.640000000     1.148000000
H     0.638000000     1.229000000     1.993000000
C     0.354000000    -0.763000000     1.204000000
H     0.622000000    -1.132000000     2.191000000
C     0.114000000    -1.564000000     0.092000000
C     0.235000000    -3.125000000     0.135000000
O    -0.023000000    -3.723000000     1.174000000
O     0.283000000    -3.863000000    -0.821000000
