17
-100.55430
C    -0.359000000    -0.894000000    -1.108000000
H    -0.727000000    -1.495000000    -1.935000000
C    -0.465000000     0.480000000    -1.180000000
H    -0.984000000     0.978000000    -1.996000000
C    -0.003000000     1.202000000    -0.112000000
C    -0.279000000     2.724000000     0.037000000
H    -1.129000000     2.870000000     0.707000000
H     0.640000000     3.241000000     0.322000000
H    -0.595000000     3.218000000    -0.884000000
C     0.466000000     0.549000000     1.033000000
H     0.813000000     1.176000000     1.850000000
C     0.616000000    -0.835000000     1.112000000
H     1.018000000    -1.334000000     1.990000000
C     0.222000000    -1.556000000    -0.006000000
C     0.234000000    -3.048000000     0.035000000
O     0.626000000    -3.581000000     1.080000000
O    -0.094000000    -3.698000000    -0.947000000
