17
-85.54744
C    -0.291000000     0.687000000    -1.309000000
H    -0.671000000     1.133000000    -2.225000000
C    -1.224000000     0.118000000    -0.453000000
H    -2.292000000     0.213000000    -0.628000000
C    -0.815000000    -0.437000000     0.738000000
C    -1.875000000    -1.176000000     1.535000000
H    -1.845000000    -2.267000000     1.575000000
H    -1.918000000    -0.751000000     2.540000000
H    -2.845000000    -1.064000000     1.046000000
C     0.559000000    -0.488000000     1.122000000
H     0.873000000    -0.937000000     2.061000000
C     1.504000000     0.145000000     0.276000000
H     2.552000000    -0.005000000     0.521000000
C     1.040000000     0.686000000    -0.914000000
C     2.118000000     1.173000000    -1.798000000
O     3.275000000     1.055000000    -1.429000000
O     1.855000000     1.915000000    -2.663000000
