17
-90.77761
C     0.649000000     0.247000000    -1.302000000
H     1.228000000     0.282000000    -2.221000000
C    -0.190000000    -0.852000000    -1.025000000
H    -0.359000000    -1.692000000    -1.694000000
C    -0.738000000    -0.949000000     0.227000000
C    -1.578000000    -2.144000000     0.607000000
H    -2.598000000    -1.754000000     0.611000000
H    -1.571000000    -2.860000000    -0.218000000
H    -1.274000000    -2.533000000     1.581000000
C    -0.589000000     0.097000000     1.140000000
H    -1.026000000     0.000000000     2.131000000
C     0.223000000     1.169000000     0.801000000
H     0.399000000     1.886000000     1.600000000
C     0.872000000     1.285000000    -0.362000000
C     1.853000000     2.344000000    -0.611000000
O     2.241000000     3.030000000     0.359000000
O     2.463000000     2.440000000    -1.629000000
