17
-97.56917
C    -0.212000000     0.628000000    -1.321000000
H    -0.520000000     1.195000000    -2.196000000
C    -1.236000000     0.129000000    -0.526000000
H    -2.265000000     0.317000000    -0.823000000
C    -0.940000000    -0.410000000     0.751000000
C    -2.074000000    -0.919000000     1.685000000
H    -2.433000000     0.016000000     2.120000000
H    -2.753000000    -1.577000000     1.139000000
H    -1.710000000    -1.531000000     2.513000000
C     0.428000000    -0.442000000     1.157000000
H     0.718000000    -0.803000000     2.140000000
C     1.473000000    -0.087000000     0.284000000
H     2.496000000    -0.137000000     0.649000000
C     1.169000000     0.455000000    -0.980000000
C     2.313000000     0.956000000    -1.925000000
O     3.465000000     0.533000000    -1.758000000
O     2.080000000     1.674000000    -2.916000000
