17
-93.31292
C    -0.548000000    -0.745000000    -1.127000000
H    -1.095000000    -1.214000000    -1.941000000
C    -1.242000000    -0.254000000     0.032000000
H    -2.327000000    -0.308000000     0.053000000
C    -0.580000000     0.380000000     1.064000000
C    -1.416000000     1.124000000     2.070000000
H    -0.969000000     2.119000000     2.121000000
H    -2.430000000     1.190000000     1.668000000
H    -1.395000000     0.621000000     3.039000000
C     0.786000000     0.576000000     0.887000000
H     1.321000000     1.185000000     1.611000000
C     1.492000000    -0.005000000    -0.129000000
H     2.535000000     0.277000000    -0.241000000
C     0.830000000    -0.628000000    -1.178000000
C     1.506000000    -1.288000000    -2.307000000
O     2.665000000    -1.541000000    -2.231000000
O     0.862000000    -1.483000000    -3.390000000
