17
-95.55237
C    -0.369000000     0.121000000    -1.368000000
H    -0.850000000     0.070000000    -2.341000000
C    -1.100000000    -0.524000000    -0.361000000
H    -1.948000000    -1.177000000    -0.548000000
C    -0.644000000    -0.581000000     0.941000000
C    -1.503000000    -1.235000000     1.976000000
H    -2.531000000    -0.952000000     1.738000000
H    -1.529000000    -2.315000000     1.821000000
H    -1.334000000    -0.992000000     3.027000000
C     0.587000000     0.073000000     1.210000000
H     1.086000000    -0.159000000     2.148000000
C     1.339000000     0.676000000     0.184000000
H     2.261000000     1.198000000     0.426000000
C     0.857000000     0.745000000    -1.132000000
C     1.675000000     1.491000000    -2.254000000
O     2.817000000     1.906000000    -2.062000000
O     1.191000000     1.654000000    -3.397000000
