17
-82.32488
C     1.386000000     0.411000000     0.109000000
H     2.468000000     0.494000000     0.173000000
C     0.960000000    -0.717000000    -0.507000000
H     1.704000000    -1.413000000    -0.887000000
C    -0.361000000    -0.966000000    -0.620000000
C    -0.875000000    -2.224000000    -1.199000000
H    -0.603000000    -2.458000000    -2.230000000
H    -0.490000000    -3.057000000    -0.606000000
H    -1.945000000    -2.351000000    -1.026000000
C    -1.301000000    -0.072000000    -0.116000000
H    -2.353000000    -0.325000000    -0.222000000
C    -0.899000000     0.988000000     0.674000000
H    -1.560000000     1.637000000     1.242000000
C     0.442000000     1.246000000     0.730000000
C     1.007000000     2.522000000     1.396000000
O     0.262000000     3.503000000     1.564000000
O     2.150000000     2.774000000     1.523000000
