17
-99.86118
C    -1.115000000    -0.972000000    -0.004000000
H    -1.875000000    -1.748000000     0.014000000
C     0.175000000    -1.260000000    -0.468000000
H     0.465000000    -2.228000000    -0.869000000
C     1.135000000    -0.246000000    -0.391000000
C     2.538000000    -0.558000000    -0.840000000
H     2.640000000    -0.676000000    -1.921000000
H     3.198000000     0.277000000    -0.595000000
H     2.834000000    -1.483000000    -0.340000000
C     0.788000000     1.010000000     0.181000000
H     1.558000000     1.777000000     0.177000000
C    -0.494000000     1.344000000     0.589000000
H    -0.701000000     2.378000000     0.855000000
C    -1.475000000     0.343000000     0.469000000
C    -2.916000000     0.649000000     0.889000000
O    -3.066000000     1.611000000     1.630000000
O    -3.691000000    -0.225000000     0.628000000
