17
-86.71631
C     0.951000000     0.194000000     1.069000000
H     1.653000000     0.116000000     1.896000000
C     0.800000000    -0.955000000     0.248000000
H     1.504000000    -1.755000000     0.462000000
C    -0.174000000    -0.971000000    -0.705000000
C    -0.294000000    -2.254000000    -1.525000000
H     0.220000000    -2.151000000    -2.483000000
H     0.199000000    -3.114000000    -1.068000000
H    -1.311000000    -2.534000000    -1.807000000
C    -0.986000000     0.111000000    -0.837000000
H    -1.796000000    -0.033000000    -1.548000000
C    -0.750000000     1.322000000    -0.169000000
H    -1.358000000     2.186000000    -0.422000000
C     0.102000000     1.309000000     0.927000000
C     0.345000000     2.517000000     1.776000000
O    -0.196000000     3.541000000     1.508000000
O     1.098000000     2.466000000     2.680000000
