17
-95.70610
C     0.641000000     0.623000000    -1.154000000
H     1.087000000     1.034000000    -2.056000000
C     0.022000000    -0.649000000    -1.176000000
H    -0.180000000    -1.255000000    -2.055000000
C    -0.411000000    -1.188000000     0.013000000
C    -1.162000000    -2.470000000     0.075000000
H    -1.877000000    -2.575000000    -0.743000000
H    -0.387000000    -3.233000000    -0.023000000
H    -1.752000000    -2.557000000     0.990000000
C    -0.306000000    -0.434000000     1.159000000
H    -0.635000000    -0.861000000     2.104000000
C     0.157000000     0.882000000     1.166000000
H     0.315000000     1.451000000     2.079000000
C     0.669000000     1.441000000    -0.010000000
C     1.233000000     2.872000000    -0.084000000
O     0.767000000     3.618000000     0.764000000
O     1.813000000     3.297000000    -1.051000000
