17
-91.22995
C     0.100000000     0.977000000    -1.110000000
H    -0.038000000     1.545000000    -2.026000000
C    -0.636000000    -0.194000000    -1.147000000
H    -1.317000000    -0.383000000    -1.973000000
C    -0.596000000    -1.125000000    -0.094000000
C    -1.495000000    -2.317000000    -0.103000000
H    -1.156000000    -2.867000000    -0.983000000
H    -1.384000000    -2.902000000     0.812000000
H    -2.537000000    -1.990000000    -0.111000000
C     0.146000000    -0.747000000     1.050000000
H     0.231000000    -1.308000000     1.977000000
C     0.842000000     0.478000000     1.106000000
H     1.342000000     0.806000000     2.014000000
C     0.837000000     1.321000000     0.002000000
C     1.703000000     2.537000000     0.098000000
O     2.558000000     2.596000000     0.949000000
O     1.401000000     3.565000000    -0.465000000
