17
-93.43078
C     1.240000000     0.704000000     0.331000000
H     2.255000000     1.032000000     0.541000000
C     1.136000000    -0.504000000    -0.334000000
H     2.050000000    -0.982000000    -0.676000000
C    -0.117000000    -1.073000000    -0.578000000
C    -0.165000000    -2.360000000    -1.393000000
H     0.322000000    -2.275000000    -2.367000000
H     0.229000000    -3.155000000    -0.755000000
H    -1.213000000    -2.584000000    -1.600000000
C    -1.263000000    -0.437000000    -0.140000000
H    -2.269000000    -0.795000000    -0.345000000
C    -1.122000000     0.727000000     0.578000000
H    -2.009000000     1.267000000     0.902000000
C     0.101000000     1.347000000     0.812000000
C     0.228000000     2.676000000     1.456000000
O    -0.718000000     3.230000000     1.918000000
O     1.314000000     3.189000000     1.652000000
