17
-93.20363
C     1.171000000     0.818000000     0.335000000
H     2.170000000     1.183000000     0.560000000
C     1.141000000    -0.365000000    -0.324000000
H     2.106000000    -0.833000000    -0.502000000
C    -0.034000000    -1.047000000    -0.603000000
C     0.118000000    -2.457000000    -1.033000000
H     0.357000000    -2.402000000    -2.097000000
H     0.917000000    -2.980000000    -0.502000000
H    -0.751000000    -3.117000000    -0.998000000
C    -1.299000000    -0.391000000    -0.461000000
H    -2.249000000    -0.863000000    -0.699000000
C    -1.285000000     0.863000000     0.139000000
H    -2.253000000     1.340000000     0.275000000
C    -0.082000000     1.412000000     0.672000000
C    -0.019000000     2.635000000     1.502000000
O    -1.065000000     3.176000000     1.812000000
O     1.055000000     3.020000000     1.921000000
