17
-94.05833
C    -0.038000000     1.221000000    -0.916000000
H     0.094000000     1.988000000    -1.675000000
C    -0.505000000    -0.086000000    -1.238000000
H    -0.813000000    -0.329000000    -2.252000000
C    -0.324000000    -1.134000000    -0.312000000
C    -0.900000000    -2.533000000    -0.614000000
H    -1.364000000    -2.525000000    -1.603000000
H    -0.155000000    -3.314000000    -0.449000000
H    -1.638000000    -2.801000000     0.145000000
C     0.107000000    -0.841000000     0.984000000
H     0.207000000    -1.649000000     1.704000000
C     0.405000000     0.491000000     1.380000000
H     0.742000000     0.635000000     2.404000000
C     0.435000000     1.455000000     0.368000000
C     1.074000000     2.772000000     0.647000000
O     1.455000000     3.122000000     1.726000000
O     1.214000000     3.535000000    -0.306000000
