17
-94.43616
C     0.663000000     0.091000000     1.299000000
H     1.194000000    -0.045000000     2.238000000
C     1.128000000    -0.618000000     0.240000000
H     2.060000000    -1.168000000     0.345000000
C     0.364000000    -0.700000000    -0.926000000
C     0.831000000    -1.601000000    -2.018000000
H     0.392000000    -1.313000000    -2.975000000
H     1.909000000    -1.506000000    -2.165000000
H     0.584000000    -2.656000000    -1.881000000
C    -0.800000000     0.042000000    -1.016000000
H    -1.369000000     0.012000000    -1.942000000
C    -1.217000000     0.876000000    -0.005000000
H    -2.060000000     1.560000000    -0.057000000
C    -0.494000000     0.867000000     1.171000000
C    -0.923000000     1.804000000     2.239000000
O    -2.108000000     2.100000000     2.390000000
O    -0.158000000     2.250000000     3.055000000
