17
-92.10035
C     0.587000000     0.595000000     1.294000000
H     0.923000000     0.777000000     2.311000000
C     0.986000000    -0.559000000     0.642000000
H     1.775000000    -1.116000000     1.141000000
C     0.544000000    -0.870000000    -0.601000000
C     1.177000000    -2.040000000    -1.413000000
H     1.327000000    -1.869000000    -2.481000000
H     2.174000000    -2.354000000    -1.100000000
H     0.429000000    -2.836000000    -1.403000000
C    -0.531000000    -0.176000000    -1.227000000
H    -1.053000000    -0.442000000    -2.143000000
C    -1.105000000     0.891000000    -0.488000000
H    -2.026000000     1.328000000    -0.866000000
C    -0.503000000     1.304000000     0.722000000
C    -1.331000000     2.254000000     1.608000000
O    -2.437000000     2.691000000     1.266000000
O    -0.935000000     2.425000000     2.740000000
