17
-94.00119
C    -0.344000000    -0.180000000     1.392000000
H    -0.555000000    -0.419000000     2.431000000
C     0.332000000    -1.044000000     0.643000000
H     0.630000000    -1.980000000     1.107000000
C     0.575000000    -0.793000000    -0.688000000
C     1.282000000    -1.802000000    -1.602000000
H     0.529000000    -2.088000000    -2.340000000
H     2.229000000    -1.437000000    -2.005000000
H     1.495000000    -2.760000000    -1.124000000
C     0.269000000     0.447000000    -1.198000000
H     0.468000000     0.726000000    -2.229000000
C    -0.367000000     1.380000000    -0.406000000
H    -0.661000000     2.312000000    -0.882000000
C    -0.684000000     1.046000000     0.925000000
C    -1.476000000     1.972000000     1.806000000
O    -1.754000000     3.061000000     1.338000000
O    -1.973000000     1.563000000     2.837000000
