17
-93.10802
C     0.358000000     0.306000000     1.394000000
H     0.785000000     0.618000000     2.343000000
C     1.230000000     0.103000000     0.309000000
H     2.293000000     0.242000000     0.488000000
C     0.806000000    -0.165000000    -0.932000000
C     1.708000000    -0.453000000    -2.096000000
H     2.550000000     0.234000000    -2.196000000
H     2.140000000    -1.429000000    -1.866000000
H     1.294000000    -0.571000000    -3.100000000
C    -0.571000000    -0.252000000    -1.136000000
H    -0.932000000    -0.591000000    -2.103000000
C    -1.482000000    -0.114000000    -0.072000000
H    -2.553000000    -0.199000000    -0.237000000
C    -1.019000000     0.277000000     1.163000000
C    -1.966000000     0.604000000     2.361000000
O    -3.119000000     0.864000000     2.200000000
O    -1.522000000     0.522000000     3.477000000
