17
-88.25082
C     0.460000000    -0.052000000     1.410000000
H     0.979000000    -0.063000000     2.365000000
C     1.256000000    -0.455000000     0.346000000
H     2.293000000    -0.731000000     0.524000000
C     0.680000000    -0.445000000    -0.937000000
C     1.479000000    -0.867000000    -2.150000000
H     2.183000000    -0.078000000    -2.421000000
H     1.937000000    -1.807000000    -1.834000000
H     0.863000000    -1.046000000    -3.034000000
C    -0.628000000     0.050000000    -1.144000000
H    -1.105000000     0.243000000    -2.101000000
C    -1.409000000     0.469000000    -0.077000000
H    -2.410000000     0.893000000    -0.113000000
C    -0.825000000     0.426000000     1.236000000
C    -1.682000000     0.986000000     2.323000000
O    -2.755000000     1.503000000     2.155000000
O    -1.313000000     0.974000000     3.460000000
