17
-85.98032
C    -0.117000000    -1.271000000     0.607000000
H    -0.124000000    -2.317000000     0.901000000
C     0.676000000    -0.971000000    -0.469000000
H     1.131000000    -1.894000000    -0.818000000
C     0.697000000     0.300000000    -0.952000000
C     1.449000000     0.579000000    -2.299000000
H     1.038000000     1.241000000    -3.063000000
H     2.445000000     0.958000000    -2.059000000
H     1.679000000    -0.369000000    -2.790000000
C    -0.040000000     1.328000000    -0.268000000
H    -0.032000000     2.312000000    -0.730000000
C    -0.805000000     0.965000000     0.855000000
H    -1.271000000     1.788000000     1.391000000
C    -0.865000000    -0.361000000     1.315000000
C    -1.767000000    -0.659000000     2.450000000
O    -1.968000000     0.162000000     3.302000000
O    -2.131000000    -1.793000000     2.623000000
