17
-92.96259
C    -1.268000000    -0.215000000    -0.767000000
H    -2.183000000    -0.195000000    -1.354000000
C    -0.200000000     0.575000000    -1.156000000
H    -0.281000000     1.169000000    -2.063000000
C     1.001000000     0.588000000    -0.409000000
C     2.075000000     1.408000000    -0.917000000
H     1.907000000     1.519000000    -1.991000000
H     2.171000000     2.363000000    -0.396000000
H     3.030000000     0.911000000    -0.736000000
C     1.119000000    -0.090000000     0.821000000
H     2.050000000    -0.019000000     1.378000000
C    -0.052000000    -0.692000000     1.285000000
H     0.019000000    -1.221000000     2.232000000
C    -1.212000000    -0.825000000     0.560000000
C    -2.373000000    -1.592000000     1.030000000
O    -2.335000000    -2.196000000     2.062000000
O    -3.467000000    -1.489000000     0.429000000
