17
-92.40396
C    -0.946000000    -0.516000000    -1.044000000
H    -1.603000000    -0.758000000    -1.876000000
C     0.329000000     0.043000000    -1.258000000
H     0.724000000     0.234000000    -2.252000000
C     1.096000000     0.461000000    -0.257000000
C     2.379000000     1.188000000    -0.502000000
H     2.780000000     1.050000000    -1.508000000
H     2.261000000     2.236000000    -0.218000000
H     3.164000000     0.757000000     0.124000000
C     0.695000000     0.345000000     1.060000000
H     1.145000000     0.911000000     1.872000000
C    -0.526000000    -0.273000000     1.335000000
H    -0.897000000    -0.428000000     2.345000000
C    -1.381000000    -0.686000000     0.288000000
C    -2.676000000    -1.457000000     0.558000000
O    -3.081000000    -1.337000000     1.698000000
O    -3.455000000    -1.771000000    -0.362000000
