17
-92.06483
C    -0.314000000    -0.049000000    -1.498000000
H    -0.450000000     0.012000000    -2.575000000
C     0.706000000     0.673000000    -0.863000000
H     1.413000000     1.127000000    -1.553000000
C     0.915000000     0.674000000     0.472000000
C     2.106000000     1.289000000     1.158000000
H     2.836000000     1.554000000     0.391000000
H     1.882000000     2.209000000     1.703000000
H     2.497000000     0.502000000     1.806000000
C    -0.009000000     0.028000000     1.238000000
H     0.038000000     0.255000000     2.300000000
C    -1.066000000    -0.619000000     0.668000000
H    -1.722000000    -1.095000000     1.391000000
C    -1.215000000    -0.693000000    -0.709000000
C    -2.309000000    -1.670000000    -1.180000000
O    -2.865000000    -2.395000000    -0.372000000
O    -2.439000000    -1.805000000    -2.369000000
