17
-96.44139
C    -0.142000000    -0.689000000    -1.301000000
H    -0.129000000    -1.174000000    -2.274000000
C     0.941000000     0.102000000    -0.849000000
H     1.816000000     0.224000000    -1.482000000
C     0.935000000     0.750000000     0.374000000
C     2.115000000     1.600000000     0.848000000
H     2.753000000     0.983000000     1.484000000
H     2.780000000     1.790000000     0.003000000
H     1.843000000     2.482000000     1.433000000
C    -0.127000000     0.502000000     1.205000000
H    -0.158000000     0.950000000     2.195000000
C    -1.199000000    -0.269000000     0.754000000
H    -2.068000000    -0.471000000     1.374000000
C    -1.224000000    -0.931000000    -0.463000000
C    -2.386000000    -1.751000000    -0.964000000
O    -3.373000000    -1.850000000    -0.274000000
O    -2.378000000    -2.248000000    -2.058000000
