17
-90.39146
C    -0.940000000    -0.385000000    -1.061000000
H    -1.669000000    -0.468000000    -1.863000000
C     0.241000000     0.359000000    -1.180000000
H     0.512000000     0.710000000    -2.173000000
C     1.115000000     0.489000000    -0.158000000
C     2.219000000     1.474000000    -0.327000000
H     3.114000000     0.854000000    -0.404000000
H     1.999000000     2.048000000    -1.230000000
H     2.215000000     2.239000000     0.453000000
C     0.788000000     0.073000000     1.107000000
H     1.473000000     0.201000000     1.941000000
C    -0.435000000    -0.608000000     1.293000000
H    -0.554000000    -1.144000000     2.231000000
C    -1.277000000    -0.818000000     0.204000000
C    -2.550000000    -1.568000000     0.346000000
O    -3.000000000    -1.755000000     1.472000000
O    -3.245000000    -1.707000000    -0.646000000
