17
-97.26722
C    -1.289000000    -0.817000000     0.128000000
H    -2.163000000    -1.439000000     0.299000000
C    -0.064000000    -1.332000000    -0.358000000
H    -0.015000000    -2.382000000    -0.635000000
C     1.015000000    -0.426000000    -0.586000000
C     2.417000000    -0.967000000    -0.894000000
H     2.469000000    -2.024000000    -1.163000000
H     2.886000000    -0.390000000    -1.695000000
H     3.049000000    -0.775000000    -0.023000000
C     0.869000000     0.847000000    -0.209000000
H     1.716000000     1.524000000    -0.289000000
C    -0.295000000     1.342000000     0.316000000
H    -0.374000000     2.372000000     0.652000000
C    -1.447000000     0.545000000     0.461000000
C    -2.615000000     1.140000000     1.143000000
O    -2.416000000     2.167000000     1.775000000
O    -3.739000000     0.622000000     1.070000000
