17
-98.27376
C    -0.261000000    -1.083000000    -1.104000000
H    -0.300000000    -1.822000000    -1.901000000
C     0.962000000    -0.294000000    -0.919000000
H     1.745000000    -0.397000000    -1.666000000
C     1.102000000     0.628000000     0.167000000
C     2.254000000     1.604000000     0.336000000
H     2.944000000     1.503000000    -0.505000000
H     1.863000000     2.624000000     0.368000000
H     2.776000000     1.401000000     1.273000000
C     0.014000000     0.806000000     0.994000000
H     0.065000000     1.539000000     1.795000000
C    -1.130000000    -0.015000000     0.882000000
H    -1.905000000     0.110000000     1.635000000
C    -1.282000000    -0.919000000    -0.152000000
C    -2.590000000    -1.735000000    -0.318000000
O    -3.485000000    -1.583000000     0.478000000
O    -2.772000000    -2.374000000    -1.361000000
