17
-96.92723
C    -1.010000000    -0.198000000    -1.031000000
H    -1.678000000    -0.144000000    -1.887000000
C     0.184000000     0.488000000    -1.139000000
H     0.434000000     1.045000000    -2.039000000
C     1.061000000     0.584000000    -0.038000000
C     2.312000000     1.419000000    -0.253000000
H     2.325000000     2.197000000     0.514000000
H     3.153000000     0.747000000    -0.071000000
H     2.410000000     1.805000000    -1.270000000
C     0.730000000     0.039000000     1.181000000
H     1.383000000     0.164000000     2.042000000
C    -0.507000000    -0.608000000     1.234000000
H    -0.687000000    -1.154000000     2.157000000
C    -1.331000000    -0.798000000     0.125000000
C    -2.647000000    -1.593000000     0.183000000
O    -2.885000000    -2.217000000     1.188000000
O    -3.241000000    -1.779000000    -0.889000000
