17
-98.24442
C    -0.904000000    -0.170000000    -1.122000000
H    -1.437000000    -0.123000000    -2.068000000
C     0.289000000     0.536000000    -1.132000000
H     0.645000000     0.981000000    -2.058000000
C     1.065000000     0.674000000     0.066000000
C     2.420000000     1.271000000    -0.038000000
H     2.427000000     2.353000000     0.112000000
H     3.112000000     0.825000000     0.680000000
H     2.932000000     1.145000000    -0.994000000
C     0.478000000     0.130000000     1.236000000
H     1.061000000     0.283000000     2.141000000
C    -0.762000000    -0.526000000     1.225000000
H    -1.197000000    -0.918000000     2.141000000
C    -1.337000000    -0.848000000     0.023000000
C    -2.618000000    -1.653000000    -0.035000000
O    -3.023000000    -2.335000000     0.934000000
O    -3.159000000    -1.624000000    -1.112000000
