17
-99.25920
C    -0.415000000    -0.896000000    -1.145000000
H    -0.635000000    -1.487000000    -2.031000000
C     0.709000000    -0.074000000    -1.072000000
H     1.415000000    -0.031000000    -1.898000000
C     1.025000000     0.700000000     0.064000000
C     2.294000000     1.562000000     0.098000000
H     2.605000000     2.031000000    -0.839000000
H     2.228000000     2.328000000     0.873000000
H     3.159000000     0.996000000     0.448000000
C     0.147000000     0.563000000     1.164000000
H     0.468000000     1.056000000     2.078000000
C    -1.060000000    -0.142000000     1.081000000
H    -1.767000000    -0.140000000     1.906000000
C    -1.369000000    -0.878000000    -0.076000000
C    -2.609000000    -1.635000000    -0.171000000
O    -3.272000000    -1.887000000     0.814000000
O    -2.919000000    -2.061000000    -1.288000000
