17
-91.90435
C    -0.226000000    -1.323000000    -0.808000000
H    -0.720000000    -1.976000000    -1.524000000
C     0.420000000    -0.154000000    -1.219000000
H     0.804000000    -0.037000000    -2.229000000
C     0.754000000     0.928000000    -0.353000000
C     1.246000000     2.223000000    -0.927000000
H     2.317000000     2.351000000    -0.755000000
H     1.139000000     2.174000000    -2.012000000
H     0.633000000     3.075000000    -0.625000000
C     0.342000000     0.860000000     0.956000000
H     0.478000000     1.744000000     1.572000000
C    -0.338000000    -0.267000000     1.430000000
H    -0.783000000    -0.288000000     2.422000000
C    -0.650000000    -1.325000000     0.550000000
C    -1.567000000    -2.382000000     1.031000000
O    -1.882000000    -2.413000000     2.225000000
O    -1.966000000    -3.194000000     0.272000000
