17
-95.08135
C    -0.209000000    -0.662000000    -1.325000000
H    -0.216000000    -1.190000000    -2.275000000
C     0.734000000     0.359000000    -1.008000000
H     1.418000000     0.735000000    -1.764000000
C     0.801000000     0.921000000     0.270000000
C     1.806000000     2.037000000     0.566000000
H     1.551000000     2.799000000    -0.174000000
H     1.732000000     2.566000000     1.519000000
H     2.820000000     1.637000000     0.515000000
C    -0.089000000     0.486000000     1.254000000
H    -0.069000000     0.819000000     2.288000000
C    -1.030000000    -0.550000000     0.909000000
H    -1.682000000    -0.851000000     1.724000000
C    -1.096000000    -1.122000000    -0.332000000
C    -1.990000000    -2.306000000    -0.665000000
O    -2.459000000    -2.863000000     0.271000000
O    -2.026000000    -2.807000000    -1.781000000
