17
-93.36641
C    -0.355000000    -1.387000000    -0.436000000
H    -0.545000000    -2.334000000    -0.936000000
C     0.581000000    -0.526000000    -0.984000000
H     1.074000000    -0.842000000    -1.900000000
C     0.838000000     0.759000000    -0.490000000
C     2.065000000     1.533000000    -1.068000000
H     2.612000000     1.190000000    -1.949000000
H     1.939000000     2.606000000    -0.909000000
H     2.832000000     1.224000000    -0.355000000
C     0.042000000     1.233000000     0.556000000
H     0.223000000     2.216000000     0.982000000
C    -1.017000000     0.438000000     1.028000000
H    -1.699000000     0.797000000     1.794000000
C    -1.181000000    -0.897000000     0.580000000
C    -2.227000000    -1.782000000     1.192000000
O    -2.855000000    -1.361000000     2.176000000
O    -2.320000000    -2.870000000     0.723000000
