17
-89.89931
C     0.980000000    -0.913000000    -0.741000000
H     1.857000000    -1.339000000    -1.221000000
C     0.376000000     0.252000000    -1.231000000
H     0.758000000     0.582000000    -2.193000000
C    -0.526000000     1.014000000    -0.467000000
C    -1.222000000     2.184000000    -0.976000000
H    -1.437000000     2.904000000    -0.183000000
H    -0.709000000     2.681000000    -1.802000000
H    -2.167000000     1.956000000    -1.474000000
C    -0.871000000     0.622000000     0.805000000
H    -1.582000000     1.162000000     1.425000000
C    -0.257000000    -0.529000000     1.303000000
H    -0.412000000    -0.764000000     2.353000000
C     0.605000000    -1.361000000     0.534000000
C     1.427000000    -2.468000000     1.124000000
O     1.247000000    -2.673000000     2.312000000
O     1.936000000    -3.303000000     0.434000000
