17
-94.26362
C    -0.392000000    -1.088000000    -0.987000000
H    -0.556000000    -1.836000000    -1.758000000
C     0.502000000    -0.041000000    -1.174000000
H     1.108000000    -0.063000000    -2.076000000
C     0.627000000     0.999000000    -0.282000000
C     1.751000000     2.056000000    -0.431000000
H     2.404000000     1.807000000    -1.270000000
H     1.336000000     3.026000000    -0.712000000
H     2.315000000     2.148000000     0.499000000
C     0.030000000     0.888000000     0.914000000
H     0.141000000     1.699000000     1.629000000
C    -0.710000000    -0.242000000     1.279000000
H    -1.036000000    -0.285000000     2.315000000
C    -1.014000000    -1.176000000     0.271000000
C    -1.907000000    -2.346000000     0.516000000
O    -2.668000000    -2.251000000     1.487000000
O    -1.923000000    -3.297000000    -0.218000000
