17
-94.97981
C    -0.823000000    -1.171000000    -0.575000000
H    -1.488000000    -1.885000000    -1.055000000
C    -0.684000000     0.103000000    -1.168000000
H    -1.161000000     0.310000000    -2.122000000
C     0.182000000     1.047000000    -0.571000000
C     0.430000000     2.447000000    -1.153000000
H    -0.070000000     3.284000000    -0.660000000
H     1.503000000     2.641000000    -1.097000000
H     0.093000000     2.393000000    -2.190000000
C     0.706000000     0.795000000     0.682000000
H     1.352000000     1.526000000     1.162000000
C     0.583000000    -0.461000000     1.312000000
H     1.004000000    -0.616000000     2.302000000
C    -0.280000000    -1.377000000     0.670000000
C    -0.429000000    -2.675000000     1.339000000
O    -0.624000000    -2.681000000     2.506000000
O    -0.289000000    -3.679000000     0.623000000
