17
-92.04057
C     1.037000000    -0.825000000    -0.635000000
H     1.786000000    -1.269000000    -1.285000000
C     0.382000000     0.354000000    -1.158000000
H     0.633000000     0.635000000    -2.178000000
C    -0.597000000     1.029000000    -0.435000000
C    -1.298000000     2.233000000    -1.047000000
H    -0.625000000     2.896000000    -1.594000000
H    -1.982000000     1.810000000    -1.786000000
H    -1.893000000     2.808000000    -0.333000000
C    -0.890000000     0.536000000     0.817000000
H    -1.591000000     1.071000000     1.452000000
C    -0.259000000    -0.605000000     1.347000000
H    -0.516000000    -0.980000000     2.334000000
C     0.686000000    -1.294000000     0.604000000
C     1.486000000    -2.503000000     1.172000000
O     1.365000000    -2.799000000     2.276000000
O     2.275000000    -3.104000000     0.446000000
