17
-95.55249
C    -0.713000000     0.546000000     1.221000000
H    -1.323000000     0.785000000     2.088000000
C    -1.345000000    -0.024000000     0.064000000
H    -2.422000000    -0.131000000    -0.037000000
C    -0.580000000    -0.447000000    -1.022000000
C    -1.221000000    -1.263000000    -2.112000000
H    -0.463000000    -1.695000000    -2.769000000
H    -1.887000000    -1.933000000    -1.564000000
H    -1.930000000    -0.612000000    -2.626000000
C     0.800000000    -0.272000000    -1.007000000
H     1.484000000    -0.602000000    -1.785000000
C     1.435000000     0.267000000     0.109000000
H     2.504000000     0.404000000     0.252000000
C     0.671000000     0.701000000     1.222000000
C     1.491000000     1.293000000     2.359000000
O     2.418000000     0.659000000     2.815000000
O     1.084000000     2.324000000     2.796000000
