17
-95.35086
C     0.419000000     1.208000000     0.715000000
H     0.529000000     2.172000000     1.204000000
C    -0.543000000     1.166000000    -0.324000000
H    -1.119000000     2.052000000    -0.579000000
C    -0.756000000     0.010000000    -1.045000000
C    -1.822000000    -0.133000000    -2.009000000
H    -1.337000000    -0.732000000    -2.782000000
H    -2.736000000    -0.547000000    -1.578000000
H    -1.965000000     0.883000000    -2.381000000
C    -0.046000000    -1.191000000    -0.584000000
H    -0.333000000    -2.128000000    -1.054000000
C     0.778000000    -1.204000000     0.529000000
H     1.352000000    -2.068000000     0.854000000
C     1.055000000     0.044000000     1.116000000
C     2.006000000     0.165000000     2.303000000
O     2.758000000    -0.800000000     2.526000000
O     1.765000000     1.097000000     3.094000000
