17
-90.72455
C     1.291000000     0.851000000     0.008000000
H     2.184000000     1.433000000    -0.208000000
C     0.261000000     0.912000000    -0.953000000
H     0.314000000     1.546000000    -1.834000000
C    -0.873000000     0.147000000    -0.853000000
C    -1.978000000     0.053000000    -1.898000000
H    -2.783000000    -0.353000000    -1.282000000
H    -2.378000000     1.005000000    -2.255000000
H    -1.777000000    -0.723000000    -2.639000000
C    -0.966000000    -0.794000000     0.138000000
H    -1.741000000    -1.557000000     0.143000000
C     0.052000000    -0.833000000     1.110000000
H    -0.074000000    -1.608000000     1.861000000
C     1.129000000     0.076000000     1.113000000
C     2.153000000    -0.032000000     2.196000000
O     1.999000000    -0.770000000     3.167000000
O     3.188000000     0.648000000     2.194000000
