17
-88.32936
C     1.300000000    -0.349000000    -0.582000000
H     2.264000000    -0.528000000    -1.050000000
C     0.230000000     0.245000000    -1.303000000
H     0.221000000     0.465000000    -2.368000000
C    -0.913000000     0.590000000    -0.667000000
C    -2.142000000     1.084000000    -1.333000000
H    -2.005000000     2.099000000    -1.713000000
H    -2.462000000     0.350000000    -2.076000000
H    -2.931000000     1.219000000    -0.591000000
C    -1.014000000     0.288000000     0.729000000
H    -1.884000000     0.564000000     1.319000000
C     0.077000000    -0.417000000     1.364000000
H    -0.053000000    -0.607000000     2.426000000
C     1.226000000    -0.653000000     0.767000000
C     2.349000000    -1.303000000     1.495000000
O     2.365000000    -1.477000000     2.705000000
O     3.374000000    -1.566000000     0.884000000
