17
-93.66823
C    -0.559000000     0.491000000     1.298000000
H    -1.050000000     0.921000000     2.167000000
C    -1.302000000     0.251000000     0.191000000
H    -2.372000000     0.422000000     0.107000000
C    -0.713000000    -0.185000000    -0.963000000
C    -1.503000000    -0.402000000    -2.193000000
H    -2.499000000     0.037000000    -2.106000000
H    -1.014000000     0.021000000    -3.073000000
H    -1.527000000    -1.482000000    -2.352000000
C     0.644000000    -0.554000000    -0.917000000
H     1.065000000    -1.026000000    -1.801000000
C     1.439000000    -0.402000000     0.186000000
H     2.499000000    -0.606000000     0.317000000
C     0.836000000     0.255000000     1.258000000
C     1.748000000     0.610000000     2.373000000
O     2.821000000     0.050000000     2.461000000
O     1.493000000     1.592000000     3.045000000
