17
-102.26013
C    -1.439000000     0.489000000    -0.079000000
H    -2.486000000     0.765000000    -0.175000000
C    -0.779000000    -0.319000000    -1.051000000
H    -1.270000000    -0.629000000    -1.969000000
C     0.567000000    -0.621000000    -0.889000000
C     1.338000000    -1.435000000    -1.882000000
H     1.890000000    -2.257000000    -1.421000000
H     0.767000000    -1.850000000    -2.716000000
H     2.095000000    -0.788000000    -2.330000000
C     1.269000000    -0.252000000     0.294000000
H     2.295000000    -0.591000000     0.413000000
C     0.592000000     0.487000000     1.243000000
H     1.116000000     0.744000000     2.160000000
C    -0.737000000     0.858000000     1.043000000
C    -1.507000000     1.605000000     2.175000000
O    -0.981000000     2.073000000     3.161000000
O    -2.727000000     1.717000000     2.024000000
