17
-92.50182
C    -1.448000000     0.330000000    -0.137000000
H    -2.503000000     0.575000000    -0.232000000
C    -0.812000000    -0.668000000    -0.821000000
H    -1.352000000    -1.268000000    -1.549000000
C     0.524000000    -0.953000000    -0.550000000
C     1.269000000    -2.055000000    -1.369000000
H     0.949000000    -1.976000000    -2.410000000
H     2.355000000    -2.062000000    -1.252000000
H     0.800000000    -2.998000000    -1.079000000
C     1.250000000    -0.167000000     0.329000000
H     2.305000000    -0.333000000     0.530000000
C     0.641000000     0.950000000     0.955000000
H     1.349000000     1.576000000     1.493000000
C    -0.711000000     1.207000000     0.729000000
C    -1.366000000     2.294000000     1.569000000
O    -0.699000000     3.107000000     2.206000000
O    -2.549000000     2.448000000     1.594000000
