17
-86.22476
C    -1.147000000     0.658000000     0.638000000
H    -2.114000000     0.994000000     1.003000000
C    -1.136000000    -0.384000000    -0.223000000
H    -2.089000000    -0.869000000    -0.422000000
C     0.012000000    -0.883000000    -0.825000000
C    -0.142000000    -2.121000000    -1.685000000
H    -0.921000000    -2.767000000    -1.275000000
H    -0.446000000    -1.794000000    -2.682000000
H     0.805000000    -2.664000000    -1.707000000
C     1.243000000    -0.298000000    -0.521000000
H     2.119000000    -0.703000000    -1.021000000
C     1.284000000     0.725000000     0.402000000
H     2.236000000     1.179000000     0.666000000
C     0.066000000     1.180000000     1.010000000
C     0.086000000     2.208000000     2.021000000
O     1.091000000     2.833000000     2.202000000
O    -0.949000000     2.705000000     2.419000000
