17
-94.88199
C    -1.099000000    -0.906000000    -0.407000000
H    -1.894000000    -1.505000000    -0.843000000
C     0.299000000    -1.085000000    -0.638000000
H     0.503000000    -1.822000000    -1.411000000
C     1.218000000    -0.230000000    -0.120000000
C     2.657000000    -0.446000000    -0.619000000
H     2.873000000    -1.515000000    -0.568000000
H     2.842000000    -0.140000000    -1.651000000
H     3.338000000     0.086000000     0.050000000
C     0.820000000     0.844000000     0.631000000
H     1.534000000     1.603000000     0.939000000
C    -0.549000000     1.002000000     0.901000000
H    -0.873000000     1.878000000     1.457000000
C    -1.515000000     0.184000000     0.391000000
C    -2.973000000     0.537000000     0.562000000
O    -3.284000000     1.242000000     1.552000000
O    -3.905000000     0.276000000    -0.224000000
