17
-93.03261
C    -1.287000000     0.734000000     0.087000000
H    -2.262000000     1.195000000     0.222000000
C    -1.161000000    -0.527000000    -0.432000000
H    -2.002000000    -1.118000000    -0.785000000
C     0.163000000    -1.079000000    -0.603000000
C     0.336000000    -2.545000000    -1.092000000
H     0.928000000    -2.562000000    -2.009000000
H     0.969000000    -3.169000000    -0.457000000
H    -0.580000000    -3.130000000    -1.199000000
C     1.265000000    -0.385000000    -0.134000000
H     2.303000000    -0.695000000    -0.222000000
C     1.087000000     0.896000000     0.485000000
H     1.958000000     1.416000000     0.874000000
C    -0.224000000     1.473000000     0.668000000
C    -0.432000000     2.793000000     1.374000000
O     0.493000000     3.554000000     1.548000000
O    -1.546000000     3.144000000     1.668000000
