17
-98.55902
C    -1.187000000     0.775000000    -0.484000000
H    -2.029000000     1.293000000    -0.936000000
C    -0.060000000     0.377000000    -1.240000000
H    -0.027000000     0.656000000    -2.290000000
C     1.045000000    -0.246000000    -0.645000000
C     2.254000000    -0.629000000    -1.455000000
H     3.142000000    -0.901000000    -0.880000000
H     2.045000000    -1.499000000    -2.082000000
H     2.473000000     0.220000000    -2.105000000
C     0.885000000    -0.676000000     0.674000000
H     1.622000000    -1.294000000     1.180000000
C    -0.226000000    -0.309000000     1.469000000
H    -0.184000000    -0.733000000     2.469000000
C    -1.236000000     0.459000000     0.881000000
C    -2.511000000     0.720000000     1.599000000
O    -2.546000000     0.469000000     2.784000000
O    -3.454000000     1.318000000     1.058000000
