17
-97.15233
C    -1.423000000    -0.247000000     0.142000000
H    -2.506000000    -0.316000000     0.216000000
C    -0.867000000     0.845000000    -0.442000000
H    -1.582000000     1.599000000    -0.759000000
C     0.480000000     1.055000000    -0.495000000
C     1.104000000     2.225000000    -1.218000000
H     1.271000000     3.099000000    -0.585000000
H     2.031000000     1.897000000    -1.693000000
H     0.403000000     2.463000000    -2.021000000
C     1.278000000     0.022000000     0.081000000
H     2.357000000     0.149000000     0.092000000
C     0.752000000    -1.116000000     0.661000000
H     1.397000000    -1.885000000     1.076000000
C    -0.615000000    -1.235000000     0.704000000
C    -1.211000000    -2.533000000     1.243000000
O    -0.525000000    -3.531000000     1.365000000
O    -2.345000000    -2.492000000     1.638000000
