17
-96.63234
C    -1.470000000     0.022000000    -0.179000000
H    -2.514000000     0.150000000    -0.453000000
C    -0.539000000     0.132000000    -1.173000000
H    -0.930000000     0.169000000    -2.187000000
C     0.817000000     0.123000000    -0.881000000
C     1.809000000     0.551000000    -1.957000000
H     1.447000000     0.621000000    -2.984000000
H     2.279000000     1.517000000    -1.761000000
H     2.671000000    -0.120000000    -1.946000000
C     1.219000000    -0.119000000     0.407000000
H     2.286000000    -0.126000000     0.615000000
C     0.261000000    -0.359000000     1.397000000
H     0.541000000    -0.612000000     2.416000000
C    -1.074000000    -0.266000000     1.151000000
C    -2.022000000    -0.506000000     2.257000000
O    -1.676000000    -1.080000000     3.302000000
O    -3.112000000    -0.095000000     1.984000000
