17
-86.53011
C    -1.380000000    -0.584000000    -0.056000000
H    -2.435000000    -0.836000000     0.012000000
C    -0.803000000     0.278000000    -0.946000000
H    -1.413000000     0.748000000    -1.713000000
C     0.512000000     0.642000000    -0.869000000
C     1.031000000     1.593000000    -1.910000000
H     1.930000000     1.226000000    -2.410000000
H     0.290000000     1.737000000    -2.699000000
H     1.296000000     2.535000000    -1.424000000
C     1.333000000     0.256000000     0.199000000
H     2.364000000     0.596000000     0.237000000
C     0.737000000    -0.632000000     1.062000000
H     1.328000000    -0.925000000     1.926000000
C    -0.563000000    -1.114000000     0.974000000
C    -1.250000000    -1.722000000     2.174000000
O    -0.571000000    -1.941000000     3.166000000
O    -2.408000000    -1.849000000     2.282000000
