17
-89.71287
C    -1.419000000    -0.043000000     0.390000000
H    -2.504000000    -0.037000000     0.464000000
C    -0.821000000     0.795000000    -0.619000000
H    -1.380000000     1.435000000    -1.297000000
C     0.533000000     0.722000000    -0.850000000
C     1.159000000     1.660000000    -1.935000000
H     0.909000000     2.721000000    -1.867000000
H     2.250000000     1.688000000    -1.954000000
H     0.858000000     1.208000000    -2.882000000
C     1.333000000    -0.254000000    -0.140000000
H     2.405000000    -0.362000000    -0.289000000
C     0.666000000    -1.046000000     0.799000000
H     1.345000000    -1.749000000     1.274000000
C    -0.664000000    -0.922000000     1.184000000
C    -1.347000000    -1.693000000     2.303000000
O    -0.846000000    -2.696000000     2.697000000
O    -2.485000000    -1.420000000     2.719000000
