17
-94.59773
C    -1.380000000     0.176000000    -0.277000000
H    -2.400000000     0.245000000    -0.646000000
C    -0.453000000    -0.335000000    -1.161000000
H    -0.704000000    -0.685000000    -2.159000000
C     0.854000000    -0.434000000    -0.749000000
C     1.859000000    -0.779000000    -1.815000000
H     2.643000000    -1.411000000    -1.393000000
H     1.349000000    -1.399000000    -2.555000000
H     2.201000000     0.072000000    -2.408000000
C     1.262000000    -0.185000000     0.553000000
H     2.312000000    -0.271000000     0.820000000
C     0.277000000     0.352000000     1.413000000
H     0.531000000     0.570000000     2.447000000
C    -1.074000000     0.521000000     1.049000000
C    -2.173000000     1.069000000     1.992000000
O    -1.785000000     1.319000000     3.157000000
O    -3.321000000     1.182000000     1.734000000
