17
-89.57229
C    -0.917000000    -0.905000000     0.764000000
H    -1.543000000    -1.559000000     1.366000000
C    -1.330000000     0.330000000     0.201000000
H    -2.336000000     0.720000000     0.334000000
C    -0.378000000     1.087000000    -0.489000000
C    -0.692000000     2.479000000    -0.891000000
H    -1.771000000     2.598000000    -0.776000000
H    -0.195000000     3.276000000    -0.334000000
H    -0.493000000     2.440000000    -1.964000000
C     0.942000000     0.633000000    -0.613000000
H     1.722000000     1.223000000    -1.087000000
C     1.299000000    -0.647000000    -0.228000000
H     2.335000000    -0.957000000    -0.342000000
C     0.419000000    -1.437000000     0.543000000
C     0.850000000    -2.732000000     1.087000000
O     2.025000000    -3.011000000     1.000000000
O     0.059000000    -3.543000000     1.435000000
