17
-98.59103
C    -1.075000000    -0.289000000     0.931000000
H    -1.906000000    -0.493000000     1.601000000
C    -1.063000000     0.721000000    -0.049000000
H    -2.008000000     1.214000000    -0.264000000
C     0.075000000     0.940000000    -0.818000000
C    -0.003000000     1.976000000    -1.940000000
H     0.328000000     2.986000000    -1.691000000
H     0.368000000     1.561000000    -2.879000000
H    -1.082000000     2.074000000    -2.080000000
C     1.191000000     0.181000000    -0.573000000
H     2.011000000     0.231000000    -1.285000000
C     1.205000000    -0.832000000     0.424000000
H     2.106000000    -1.418000000     0.590000000
C     0.050000000    -1.122000000     1.116000000
C    -0.056000000    -2.261000000     2.037000000
O     0.920000000    -3.027000000     2.128000000
O    -1.064000000    -2.442000000     2.753000000
