17
-91.14850
C    -1.139000000    -0.721000000     0.680000000
H    -2.032000000    -1.214000000     1.057000000
C    -1.280000000     0.416000000    -0.127000000
H    -2.247000000     0.881000000    -0.299000000
C    -0.131000000     0.940000000    -0.737000000
C    -0.273000000     2.146000000    -1.629000000
H     0.644000000     2.706000000    -1.437000000
H    -0.184000000     1.818000000    -2.667000000
H    -1.144000000     2.782000000    -1.454000000
C     1.080000000     0.455000000    -0.455000000
H     1.944000000     0.955000000    -0.887000000
C     1.208000000    -0.608000000     0.403000000
H     2.213000000    -0.942000000     0.651000000
C     0.154000000    -1.193000000     1.037000000
C     0.331000000    -2.453000000     1.819000000
O     1.469000000    -2.850000000     1.976000000
O    -0.615000000    -3.119000000     2.066000000
