17
-94.58241
C    -1.329000000    -0.340000000    -0.452000000
H    -2.296000000    -0.725000000    -0.763000000
C    -0.240000000    -1.176000000    -0.396000000
H    -0.374000000    -2.220000000    -0.671000000
C     1.030000000    -0.746000000    -0.028000000
C     2.181000000    -1.739000000     0.030000000
H     2.695000000    -1.778000000    -0.932000000
H     2.838000000    -1.473000000     0.861000000
H     1.748000000    -2.738000000     0.118000000
C     1.138000000     0.631000000     0.353000000
H     2.068000000     1.087000000     0.683000000
C    -0.001000000     1.516000000     0.380000000
H     0.050000000     2.523000000     0.785000000
C    -1.205000000     1.015000000    -0.053000000
C    -2.457000000     1.850000000    -0.019000000
O    -2.382000000     2.739000000     0.752000000
O    -3.465000000     1.572000000    -0.641000000
