17
-86.10698
C    -1.000000000     0.839000000     0.534000000
H    -1.785000000     1.582000000     0.641000000
C    -0.032000000     1.207000000    -0.430000000
H    -0.143000000     2.143000000    -0.972000000
C     0.943000000     0.328000000    -0.737000000
C     1.870000000     0.705000000    -1.874000000
H     2.689000000     1.298000000    -1.461000000
H     2.383000000    -0.179000000    -2.260000000
H     1.364000000     1.161000000    -2.727000000
C     0.906000000    -0.935000000    -0.086000000
H     1.701000000    -1.644000000    -0.302000000
C    -0.062000000    -1.273000000     0.889000000
H    -0.104000000    -2.291000000     1.267000000
C    -1.056000000    -0.376000000     1.134000000
C    -2.258000000    -0.766000000     1.884000000
O    -2.130000000    -1.578000000     2.773000000
O    -3.287000000    -0.217000000     1.719000000
