17
-92.49151
C    -0.798000000     1.211000000     0.175000000
H    -1.206000000     2.216000000     0.238000000
C     0.377000000     1.077000000    -0.554000000
H     0.896000000     1.943000000    -0.957000000
C     1.015000000    -0.125000000    -0.685000000
C     2.287000000    -0.143000000    -1.446000000
H     3.080000000    -0.526000000    -0.801000000
H     2.278000000    -0.775000000    -2.336000000
H     2.671000000     0.829000000    -1.764000000
C     0.414000000    -1.254000000    -0.112000000
H     0.917000000    -2.215000000    -0.180000000
C    -0.724000000    -1.124000000     0.690000000
H    -1.144000000    -2.049000000     1.075000000
C    -1.402000000     0.111000000     0.774000000
C    -2.628000000     0.211000000     1.628000000
O    -3.025000000    -0.718000000     2.272000000
O    -3.005000000     1.331000000     1.979000000
