17
-97.21172
C    -0.818000000     1.195000000    -0.343000000
H    -1.330000000     2.135000000    -0.531000000
C     0.565000000     1.096000000    -0.375000000
H     1.075000000     1.921000000    -0.866000000
C     1.234000000    -0.064000000    -0.054000000
C     2.766000000    -0.122000000    -0.078000000
H     3.011000000    -0.482000000    -1.080000000
H     3.078000000     0.920000000     0.016000000
H     3.064000000    -0.841000000     0.688000000
C     0.505000000    -1.203000000     0.323000000
H     0.979000000    -2.175000000     0.432000000
C    -0.888000000    -1.063000000     0.442000000
H    -1.515000000    -1.880000000     0.789000000
C    -1.529000000     0.063000000     0.045000000
C    -3.006000000     0.115000000     0.141000000
O    -3.583000000    -0.572000000     0.975000000
O    -3.612000000     0.965000000    -0.531000000
