17
-97.37796
C    -1.235000000     0.393000000    -0.719000000
H    -2.016000000     0.779000000    -1.369000000
C    -0.004000000     0.140000000    -1.297000000
H     0.197000000     0.469000000    -2.313000000
C     1.091000000    -0.238000000    -0.483000000
C     2.505000000    -0.173000000    -1.093000000
H     3.326000000    -0.543000000    -0.476000000
H     2.479000000    -0.668000000    -2.066000000
H     2.787000000     0.873000000    -1.233000000
C     0.918000000    -0.624000000     0.828000000
H     1.756000000    -0.874000000     1.473000000
C    -0.375000000    -0.322000000     1.381000000
H    -0.550000000    -0.464000000     2.444000000
C    -1.452000000     0.174000000     0.639000000
C    -2.788000000     0.351000000     1.230000000
O    -2.938000000    -0.204000000     2.353000000
O    -3.709000000     0.930000000     0.694000000
