17
-95.31161
C    -1.159000000     0.115000000    -0.868000000
H    -1.942000000     0.187000000    -1.618000000
C     0.092000000    -0.349000000    -1.257000000
H     0.221000000    -0.713000000    -2.273000000
C     1.133000000    -0.288000000    -0.345000000
C     2.473000000    -0.829000000    -0.818000000
H     2.212000000    -1.449000000    -1.677000000
H     3.161000000    -0.005000000    -1.022000000
H     2.896000000    -1.455000000    -0.029000000
C     0.921000000     0.029000000     0.961000000
H     1.737000000     0.127000000     1.673000000
C    -0.366000000     0.380000000     1.425000000
H    -0.557000000     0.632000000     2.465000000
C    -1.377000000     0.455000000     0.470000000
C    -2.778000000     0.904000000     0.876000000
O    -3.095000000     1.140000000     2.029000000
O    -3.580000000     1.122000000     0.016000000
