17
-92.68457
C    -0.996000000     0.520000000    -1.024000000
H    -1.631000000     0.691000000    -1.889000000
C     0.349000000     0.115000000    -1.288000000
H     0.646000000    -0.114000000    -2.309000000
C     1.219000000    -0.215000000    -0.247000000
C     2.571000000    -0.748000000    -0.454000000
H     3.184000000    -0.076000000    -1.057000000
H     3.103000000    -0.852000000     0.493000000
H     2.589000000    -1.691000000    -1.006000000
C     0.690000000    -0.250000000     1.034000000
H     1.252000000    -0.574000000     1.907000000
C    -0.566000000     0.262000000     1.333000000
H    -0.916000000     0.229000000     2.362000000
C    -1.454000000     0.507000000     0.276000000
C    -2.947000000     0.619000000     0.532000000
O    -3.423000000     0.575000000     1.685000000
O    -3.678000000     0.998000000    -0.342000000
