17
-97.32084
C     0.202000000     1.462000000    -0.171000000
H     0.446000000     2.514000000    -0.292000000
C     1.103000000     0.465000000    -0.630000000
H     2.021000000     0.682000000    -1.171000000
C     0.837000000    -0.848000000    -0.298000000
C     1.702000000    -2.021000000    -0.858000000
H     1.156000000    -2.332000000    -1.752000000
H     2.724000000    -1.764000000    -1.143000000
H     1.825000000    -2.762000000    -0.066000000
C    -0.365000000    -1.177000000     0.327000000
H    -0.642000000    -2.226000000     0.397000000
C    -1.252000000    -0.201000000     0.759000000
H    -2.229000000    -0.495000000     1.133000000
C    -1.008000000     1.116000000     0.526000000
C    -1.918000000     2.228000000     0.963000000
O    -2.967000000     1.959000000     1.530000000
O    -1.637000000     3.400000000     0.740000000
