17
-98.81099
C    -1.510000000    -0.206000000    -0.244000000
H    -2.560000000    -0.440000000    -0.398000000
C    -0.541000000    -1.213000000    -0.357000000
H    -0.877000000    -2.240000000    -0.474000000
C     0.824000000    -0.872000000    -0.167000000
C     1.929000000    -1.922000000    -0.094000000
H     1.584000000    -2.882000000     0.297000000
H     2.306000000    -2.132000000    -1.097000000
H     2.769000000    -1.625000000     0.538000000
C     1.207000000     0.439000000     0.142000000
H     2.247000000     0.659000000     0.369000000
C     0.270000000     1.419000000     0.282000000
H     0.602000000     2.418000000     0.553000000
C    -1.087000000     1.142000000     0.007000000
C    -2.099000000     2.189000000     0.137000000
O    -1.789000000     3.384000000     0.158000000
O    -3.270000000     1.880000000     0.351000000
