17
-93.16488
C    -0.149000000     1.068000000     0.981000000
H    -0.162000000     1.899000000     1.681000000
C     1.020000000     0.811000000     0.189000000
H     1.861000000     1.495000000     0.269000000
C     0.974000000    -0.216000000    -0.727000000
C     2.177000000    -0.549000000    -1.508000000
H     2.134000000    -1.543000000    -1.956000000
H     2.261000000     0.243000000    -2.255000000
H     3.099000000    -0.506000000    -0.924000000
C    -0.207000000    -0.957000000    -0.880000000
H    -0.072000000    -1.838000000    -1.503000000
C    -1.294000000    -0.812000000    -0.009000000
H    -2.161000000    -1.422000000    -0.248000000
C    -1.270000000     0.255000000     0.910000000
C    -2.429000000     0.525000000     1.847000000
O    -3.492000000     0.050000000     1.575000000
O    -2.294000000     1.496000000     2.563000000
