17
-91.65302
C    -1.007000000     0.993000000    -0.556000000
H    -1.686000000     1.801000000    -0.818000000
C     0.206000000     0.631000000    -1.220000000
H     0.528000000     1.192000000    -2.093000000
C     1.053000000    -0.314000000    -0.593000000
C     2.508000000    -0.531000000    -0.951000000
H     2.542000000    -1.409000000    -1.599000000
H     2.755000000     0.277000000    -1.643000000
H     3.083000000    -0.517000000    -0.022000000
C     0.629000000    -1.066000000     0.489000000
H     1.216000000    -1.854000000     0.953000000
C    -0.594000000    -0.754000000     1.096000000
H    -0.871000000    -1.267000000     2.014000000
C    -1.290000000     0.411000000     0.661000000
C    -2.611000000     0.741000000     1.345000000
O    -3.188000000    -0.111000000     2.033000000
O    -3.266000000     1.771000000     0.900000000
