17
-91.67382
C    -0.233000000     0.936000000     1.069000000
H    -0.103000000     1.447000000     2.020000000
C     0.980000000     0.725000000     0.372000000
H     1.863000000     1.316000000     0.601000000
C     1.063000000    -0.117000000    -0.684000000
C     2.421000000    -0.384000000    -1.328000000
H     3.025000000    -1.138000000    -0.818000000
H     2.229000000    -0.734000000    -2.344000000
H     3.049000000     0.502000000    -1.213000000
C    -0.139000000    -0.844000000    -1.081000000
H    -0.050000000    -1.622000000    -1.835000000
C    -1.379000000    -0.579000000    -0.411000000
H    -2.296000000    -1.107000000    -0.659000000
C    -1.408000000     0.217000000     0.813000000
C    -2.672000000     0.430000000     1.605000000
O    -3.495000000    -0.468000000     1.586000000
O    -2.847000000     1.425000000     2.310000000
