17
-98.19725
C     0.423000000     0.569000000     1.249000000
H     0.786000000     0.872000000     2.228000000
C     1.276000000    -0.115000000     0.344000000
H     2.347000000    -0.214000000     0.503000000
C     0.708000000    -0.595000000    -0.849000000
C     1.551000000    -1.335000000    -1.783000000
H     2.623000000    -1.207000000    -1.620000000
H     1.351000000    -2.405000000    -1.690000000
H     1.394000000    -0.934000000    -2.787000000
C    -0.604000000    -0.320000000    -1.112000000
H    -1.001000000    -0.663000000    -2.064000000
C    -1.389000000     0.413000000    -0.218000000
H    -2.449000000     0.476000000    -0.450000000
C    -0.904000000     0.803000000     1.019000000
C    -1.771000000     1.471000000     2.099000000
O    -3.010000000     1.316000000     1.960000000
O    -1.324000000     1.876000000     3.163000000
