17
-89.15253
C     0.994000000    -1.049000000     0.175000000
H     1.848000000    -1.721000000     0.213000000
C     0.769000000    -0.328000000    -0.966000000
H     1.387000000    -0.466000000    -1.850000000
C    -0.174000000     0.694000000    -0.990000000
C    -0.322000000     1.508000000    -2.216000000
H     0.547000000     1.544000000    -2.876000000
H    -1.220000000     1.182000000    -2.744000000
H    -0.380000000     2.544000000    -1.876000000
C    -0.984000000     0.953000000     0.126000000
H    -1.904000000     1.529000000     0.082000000
C    -0.774000000     0.144000000     1.278000000
H    -1.503000000     0.175000000     2.084000000
C     0.247000000    -0.806000000     1.314000000
C     0.505000000    -1.662000000     2.501000000
O    -0.358000000    -1.727000000     3.361000000
O     1.317000000    -2.509000000     2.391000000
