17
-97.35187
C     1.046000000     0.453000000     0.944000000
H     1.862000000     0.745000000     1.599000000
C     1.265000000    -0.280000000    -0.259000000
H     2.239000000    -0.284000000    -0.743000000
C     0.187000000    -0.622000000    -1.049000000
C     0.451000000    -1.221000000    -2.444000000
H     1.092000000    -0.491000000    -2.942000000
H     0.978000000    -2.175000000    -2.380000000
H    -0.509000000    -1.304000000    -2.959000000
C    -1.062000000    -0.380000000    -0.590000000
H    -1.913000000    -0.656000000    -1.207000000
C    -1.338000000     0.272000000     0.625000000
H    -2.369000000     0.302000000     0.967000000
C    -0.226000000     0.668000000     1.422000000
C    -0.503000000     1.445000000     2.697000000
O    -1.649000000     1.536000000     3.039000000
O     0.445000000     1.993000000     3.275000000
