17
-85.77551
C     1.028000000     1.087000000     0.161000000
H     1.787000000     1.865000000     0.152000000
C     1.156000000    -0.025000000    -0.707000000
H     2.058000000    -0.227000000    -1.280000000
C     0.096000000    -0.856000000    -0.817000000
C     0.122000000    -2.053000000    -1.767000000
H     0.403000000    -1.844000000    -2.802000000
H     0.822000000    -2.781000000    -1.353000000
H    -0.847000000    -2.531000000    -1.928000000
C    -1.024000000    -0.757000000     0.004000000
H    -1.805000000    -1.512000000    -0.042000000
C    -1.176000000     0.282000000     0.886000000
H    -2.010000000     0.379000000     1.577000000
C    -0.135000000     1.232000000     0.926000000
C    -0.170000000     2.270000000     2.025000000
O    -1.111000000     2.930000000     2.244000000
O     0.802000000     2.540000000     2.722000000
