17
-96.65505
C     0.936000000     1.162000000    -0.203000000
H     1.629000000     1.955000000    -0.472000000
C     0.886000000    -0.035000000    -0.948000000
H     1.686000000    -0.198000000    -1.665000000
C    -0.044000000    -1.036000000    -0.694000000
C    -0.072000000    -2.305000000    -1.481000000
H    -0.167000000    -3.067000000    -0.704000000
H    -1.016000000    -2.357000000    -2.028000000
H     0.805000000    -2.566000000    -2.076000000
C    -0.939000000    -0.877000000     0.332000000
H    -1.681000000    -1.610000000     0.639000000
C    -0.848000000     0.282000000     1.122000000
H    -1.644000000     0.409000000     1.852000000
C     0.044000000     1.364000000     0.866000000
C     0.186000000     2.601000000     1.668000000
O    -0.743000000     2.846000000     2.486000000
O     0.987000000     3.436000000     1.311000000
