17
-88.41443
C     1.181000000     0.894000000     0.180000000
H     2.145000000     1.396000000     0.163000000
C     1.125000000    -0.165000000    -0.759000000
H     2.019000000    -0.340000000    -1.353000000
C    -0.074000000    -0.852000000    -0.830000000
C    -0.189000000    -2.085000000    -1.671000000
H     0.625000000    -2.755000000    -1.384000000
H    -1.086000000    -2.659000000    -1.428000000
H    -0.201000000    -1.857000000    -2.739000000
C    -1.147000000    -0.647000000     0.011000000
H    -2.090000000    -1.184000000    -0.054000000
C    -1.087000000     0.429000000     0.901000000
H    -1.926000000     0.611000000     1.568000000
C     0.138000000     1.147000000     1.028000000
C     0.143000000     2.363000000     1.959000000
O    -0.835000000     2.919000000     2.188000000
O     1.261000000     2.781000000     2.219000000
