17
-94.71301
C     1.145000000     0.653000000     0.695000000
H     2.096000000     1.100000000     0.969000000
C     0.776000000     0.728000000    -0.662000000
H     1.408000000     1.312000000    -1.326000000
C    -0.268000000    -0.031000000    -1.258000000
C    -0.450000000     0.146000000    -2.707000000
H    -0.407000000     1.233000000    -2.793000000
H     0.254000000    -0.448000000    -3.294000000
H    -1.445000000    -0.183000000    -3.015000000
C    -1.073000000    -0.790000000    -0.365000000
H    -1.987000000    -1.227000000    -0.761000000
C    -0.742000000    -0.852000000     0.988000000
H    -1.326000000    -1.318000000     1.777000000
C     0.303000000    -0.115000000     1.508000000
C     0.548000000    -0.107000000     3.003000000
O    -0.467000000    -0.217000000     3.741000000
O     1.628000000     0.123000000     3.505000000
