17
-93.93108
C     0.762000000     0.560000000     1.147000000
H     1.428000000     0.981000000     1.896000000
C     0.874000000     0.953000000    -0.195000000
H     1.521000000     1.771000000    -0.502000000
C     0.194000000     0.312000000    -1.203000000
C     0.443000000     0.657000000    -2.720000000
H    -0.404000000     1.207000000    -3.135000000
H     1.348000000     1.251000000    -2.866000000
H     0.457000000    -0.311000000    -3.226000000
C    -0.748000000    -0.699000000    -0.786000000
H    -1.346000000    -1.230000000    -1.522000000
C    -0.886000000    -1.120000000     0.546000000
H    -1.618000000    -1.879000000     0.810000000
C    -0.174000000    -0.435000000     1.529000000
C    -0.443000000    -0.714000000     3.005000000
O    -1.441000000    -1.377000000     3.336000000
O     0.039000000     0.071000000     3.881000000
