17
-93.92456
C     1.474000000    -0.164000000     0.069000000
H     2.557000000    -0.183000000    -0.023000000
C     0.817000000     0.846000000    -0.639000000
H     1.381000000     1.642000000    -1.119000000
C    -0.620000000     0.871000000    -0.624000000
C    -1.414000000     2.028000000    -1.192000000
H    -1.010000000     2.266000000    -2.178000000
H    -2.430000000     1.741000000    -1.474000000
H    -1.382000000     2.921000000    -0.564000000
C    -1.284000000    -0.214000000    -0.144000000
H    -2.371000000    -0.203000000    -0.124000000
C    -0.578000000    -1.270000000     0.511000000
H    -1.190000000    -2.039000000     0.973000000
C     0.807000000    -1.200000000     0.727000000
C     1.535000000    -2.116000000     1.680000000
O     1.000000000    -2.977000000     2.352000000
O     2.713000000    -1.942000000     1.770000000
