17
-94.61238
C     0.649000000     0.886000000     0.956000000
H     1.075000000     1.603000000     1.652000000
C     0.375000000     1.274000000    -0.322000000
H     0.720000000     2.239000000    -0.684000000
C    -0.207000000     0.316000000    -1.146000000
C    -0.701000000     0.607000000    -2.522000000
H     0.084000000     0.520000000    -3.276000000
H    -1.564000000    -0.010000000    -2.781000000
H    -1.076000000     1.630000000    -2.592000000
C    -0.569000000    -0.964000000    -0.708000000
H    -1.127000000    -1.677000000    -1.310000000
C    -0.164000000    -1.317000000     0.558000000
H    -0.363000000    -2.306000000     0.963000000
C     0.329000000    -0.347000000     1.432000000
C     0.742000000    -0.704000000     2.883000000
O     0.287000000    -1.714000000     3.389000000
O     1.511000000    -0.033000000     3.512000000
