17
-98.82586
C     1.243000000     0.841000000     0.052000000
H     2.186000000     1.352000000    -0.125000000
C     0.177000000     1.037000000    -0.805000000
H     0.236000000     1.868000000    -1.503000000
C    -0.946000000     0.206000000    -0.776000000
C    -2.162000000     0.401000000    -1.672000000
H    -1.972000000     1.218000000    -2.371000000
H    -2.459000000    -0.478000000    -2.248000000
H    -3.037000000     0.721000000    -1.102000000
C    -1.014000000    -0.764000000     0.209000000
H    -1.908000000    -1.378000000     0.272000000
C     0.069000000    -1.002000000     1.057000000
H     0.139000000    -1.873000000     1.703000000
C     1.238000000    -0.217000000     1.007000000
C     2.490000000    -0.554000000     1.800000000
O     2.663000000    -1.735000000     2.120000000
O     3.051000000     0.363000000     2.389000000
