17
-93.58120
C     1.360000000    -0.558000000     0.336000000
H     2.392000000    -0.732000000     0.630000000
C     1.066000000     0.728000000    -0.085000000
H     1.903000000     1.410000000    -0.202000000
C    -0.229000000     1.111000000    -0.420000000
C    -0.536000000     2.530000000    -0.924000000
H    -1.479000000     2.809000000    -0.449000000
H     0.224000000     3.218000000    -0.548000000
H    -0.660000000     2.564000000    -2.009000000
C    -1.235000000     0.273000000    -0.195000000
H    -2.228000000     0.689000000    -0.348000000
C    -1.026000000    -1.081000000     0.169000000
H    -1.859000000    -1.757000000     0.347000000
C     0.295000000    -1.479000000     0.434000000
C     0.585000000    -2.860000000     0.958000000
O    -0.293000000    -3.727000000     1.146000000
O     1.726000000    -3.146000000     1.165000000
