17
-85.07540
C     1.363000000    -0.367000000    -0.089000000
H     2.436000000    -0.455000000    -0.244000000
C     0.921000000     0.905000000    -0.157000000
H     1.614000000     1.686000000     0.146000000
C    -0.463000000     1.128000000    -0.078000000
C    -0.873000000     2.495000000     0.096000000
H    -1.873000000     2.580000000     0.525000000
H    -0.227000000     2.962000000     0.842000000
H    -0.778000000     3.074000000    -0.825000000
C    -1.369000000     0.117000000    -0.128000000
H    -2.426000000     0.369000000    -0.170000000
C    -0.877000000    -1.224000000     0.003000000
H    -1.550000000    -2.076000000     0.048000000
C     0.502000000    -1.503000000    -0.053000000
C     1.036000000    -2.867000000    -0.038000000
O     0.367000000    -3.821000000    -0.250000000
O     2.190000000    -3.006000000     0.377000000
