17
-97.96984
C     1.260000000    -0.263000000     0.692000000
H     2.229000000    -0.543000000     1.096000000
C     1.128000000     0.674000000    -0.319000000
H     1.937000000     1.320000000    -0.651000000
C    -0.118000000     0.893000000    -0.883000000
C    -0.399000000     1.920000000    -1.965000000
H    -1.457000000     2.185000000    -2.005000000
H     0.140000000     2.829000000    -1.690000000
H    -0.033000000     1.526000000    -2.916000000
C    -1.224000000     0.119000000    -0.419000000
H    -2.208000000     0.222000000    -0.867000000
C    -1.054000000    -0.829000000     0.579000000
H    -1.907000000    -1.377000000     0.971000000
C     0.185000000    -1.054000000     1.210000000
C     0.444000000    -2.211000000     2.185000000
O    -0.490000000    -2.913000000     2.556000000
O     1.571000000    -2.497000000     2.427000000
