17
-101.91442
C    -1.084000000    -0.426000000    -0.811000000
H    -1.860000000    -0.915000000    -1.394000000
C     0.232000000    -0.959000000    -0.923000000
H     0.434000000    -1.696000000    -1.696000000
C     1.174000000    -0.403000000    -0.056000000
C     2.604000000    -0.886000000    -0.084000000
H     2.669000000    -1.895000000     0.327000000
H     2.848000000    -0.960000000    -1.146000000
H     3.262000000    -0.258000000     0.520000000
C     0.826000000     0.578000000     0.863000000
H     1.554000000     1.047000000     1.519000000
C    -0.456000000     1.096000000     0.868000000
H    -0.663000000     1.943000000     1.517000000
C    -1.472000000     0.620000000     0.056000000
C    -2.966000000     0.989000000     0.098000000
O    -3.339000000     1.867000000     0.877000000
O    -3.765000000     0.257000000    -0.531000000
