17
-88.33466
C     0.919000000     0.682000000     0.920000000
H     1.527000000     1.256000000     1.614000000
C     0.140000000     1.328000000    -0.032000000
H     0.370000000     2.390000000    -0.061000000
C    -0.667000000     0.555000000    -0.875000000
C    -1.343000000     1.282000000    -1.959000000
H    -0.630000000     1.965000000    -2.425000000
H    -1.895000000     0.705000000    -2.704000000
H    -2.158000000     1.856000000    -1.514000000
C    -0.769000000    -0.830000000    -0.724000000
H    -1.489000000    -1.330000000    -1.367000000
C    -0.100000000    -1.465000000     0.332000000
H    -0.228000000    -2.535000000     0.478000000
C     0.838000000    -0.693000000     1.067000000
C     1.688000000    -1.521000000     2.080000000
O     1.541000000    -2.693000000     2.185000000
O     2.261000000    -0.950000000     2.977000000
