17
-92.48623
C     0.998000000     0.461000000     1.024000000
H     1.470000000     1.042000000     1.813000000
C     0.327000000     1.222000000     0.011000000
H     0.522000000     2.290000000    -0.023000000
C    -0.434000000     0.616000000    -0.992000000
C    -0.910000000     1.486000000    -2.212000000
H    -1.416000000     2.419000000    -1.958000000
H    -0.024000000     1.858000000    -2.731000000
H    -1.473000000     0.857000000    -2.906000000
C    -0.700000000    -0.743000000    -0.871000000
H    -1.319000000    -1.386000000    -1.492000000
C    -0.265000000    -1.453000000     0.252000000
H    -0.711000000    -2.439000000     0.358000000
C     0.577000000    -0.856000000     1.223000000
C     1.029000000    -1.603000000     2.484000000
O     0.626000000    -2.732000000     2.663000000
O     1.697000000    -1.045000000     3.365000000
