17
-100.44947
C    -1.086000000    -0.467000000    -0.809000000
H    -1.866000000    -0.824000000    -1.477000000
C     0.224000000    -0.916000000    -0.897000000
H     0.506000000    -1.706000000    -1.589000000
C     1.202000000    -0.313000000    -0.133000000
C     2.606000000    -0.864000000    -0.155000000
H     3.392000000    -0.200000000    -0.523000000
H     2.825000000    -1.257000000     0.840000000
H     2.629000000    -1.699000000    -0.858000000
C     0.817000000     0.649000000     0.783000000
H     1.553000000     0.987000000     1.508000000
C    -0.515000000     1.049000000     0.896000000
H    -0.809000000     1.851000000     1.568000000
C    -1.527000000     0.548000000     0.069000000
C    -2.931000000     0.993000000     0.179000000
O    -3.228000000     1.919000000     0.932000000
O    -3.785000000     0.250000000    -0.341000000
