17
-98.87900
C     1.219000000     0.629000000     0.727000000
H     1.915000000     1.265000000     1.268000000
C     0.424000000     1.275000000    -0.226000000
H     0.592000000     2.319000000    -0.474000000
C    -0.703000000     0.639000000    -0.809000000
C    -1.476000000     1.213000000    -1.925000000
H    -2.476000000     0.774000000    -1.908000000
H    -1.769000000     2.252000000    -1.759000000
H    -1.021000000     1.114000000    -2.913000000
C    -0.897000000    -0.711000000    -0.481000000
H    -1.720000000    -1.258000000    -0.935000000
C    -0.158000000    -1.383000000     0.481000000
H    -0.404000000    -2.408000000     0.745000000
C     0.867000000    -0.697000000     1.096000000
C     1.662000000    -1.464000000     2.113000000
O     1.093000000    -2.329000000     2.789000000
O     2.853000000    -1.227000000     2.203000000
