17
-92.07899
C     1.157000000     0.095000000     1.016000000
H     2.019000000     0.264000000     1.658000000
C     0.808000000     0.978000000    -0.004000000
H     1.367000000     1.910000000    -0.029000000
C    -0.286000000     0.861000000    -0.904000000
C    -0.715000000     1.980000000    -1.828000000
H    -1.413000000     1.596000000    -2.575000000
H    -1.186000000     2.776000000    -1.247000000
H     0.111000000     2.441000000    -2.373000000
C    -1.083000000    -0.316000000    -0.751000000
H    -1.896000000    -0.425000000    -1.464000000
C    -0.668000000    -1.308000000     0.181000000
H    -1.349000000    -2.147000000     0.298000000
C     0.407000000    -1.121000000     1.073000000
C     0.788000000    -2.187000000     2.087000000
O     0.423000000    -3.345000000     1.839000000
O     1.518000000    -2.052000000     3.018000000
