17
-100.03705
C     0.913000000     0.639000000     0.968000000
H     1.653000000     1.135000000     1.590000000
C     0.452000000     1.161000000    -0.214000000
H     0.891000000     2.086000000    -0.578000000
C    -0.420000000     0.478000000    -1.070000000
C    -0.799000000     1.050000000    -2.407000000
H    -0.456000000     2.087000000    -2.451000000
H    -0.190000000     0.546000000    -3.161000000
H    -1.842000000     0.962000000    -2.717000000
C    -0.880000000    -0.750000000    -0.651000000
H    -1.503000000    -1.354000000    -1.306000000
C    -0.458000000    -1.285000000     0.527000000
H    -0.886000000    -2.237000000     0.829000000
C     0.400000000    -0.646000000     1.407000000
C     0.899000000    -1.181000000     2.717000000
O     0.748000000    -2.339000000     3.028000000
O     1.486000000    -0.355000000     3.488000000
