17
-91.49657
C    -0.545000000     1.389000000     0.315000000
H    -1.057000000     2.345000000     0.390000000
C    -0.127000000     0.930000000    -0.932000000
H    -0.126000000     1.544000000    -1.829000000
C     0.358000000    -0.391000000    -1.101000000
C     0.784000000    -0.774000000    -2.496000000
H    -0.088000000    -1.342000000    -2.827000000
H     0.933000000     0.090000000    -3.148000000
H     1.776000000    -1.229000000    -2.509000000
C     0.529000000    -1.267000000    -0.039000000
H     0.878000000    -2.288000000     0.096000000
C     0.151000000    -0.741000000     1.260000000
H     0.228000000    -1.404000000     2.118000000
C    -0.378000000     0.522000000     1.364000000
C    -0.962000000     0.795000000     2.737000000
O    -0.799000000    -0.021000000     3.616000000
O    -1.548000000     1.840000000     2.983000000
