17
-95.01541
C    -0.107000000     0.561000000     1.370000000
H    -0.077000000     1.057000000     2.337000000
C    -0.494000000     1.186000000     0.156000000
H    -0.932000000     2.180000000     0.127000000
C    -0.393000000     0.502000000    -1.027000000
C    -0.971000000     1.131000000    -2.251000000
H    -0.337000000     0.938000000    -3.119000000
H    -1.994000000     0.835000000    -2.492000000
H    -0.954000000     2.221000000    -2.187000000
C     0.089000000    -0.789000000    -1.093000000
H     0.035000000    -1.316000000    -2.043000000
C     0.662000000    -1.352000000     0.056000000
H     1.080000000    -2.347000000     0.187000000
C     0.511000000    -0.708000000     1.311000000
C     1.123000000    -1.250000000     2.545000000
O     1.992000000    -2.062000000     2.491000000
O     0.767000000    -0.791000000     3.633000000
