17
-93.61928
C    -0.344000000     1.442000000     0.331000000
H    -0.681000000     2.464000000     0.488000000
C     0.524000000     0.997000000    -0.694000000
H     1.109000000     1.678000000    -1.306000000
C     0.811000000    -0.390000000    -0.890000000
C     1.570000000    -0.891000000    -2.040000000
H     2.566000000    -0.444000000    -2.024000000
H     1.738000000    -1.970000000    -2.052000000
H     1.014000000    -0.586000000    -2.930000000
C     0.140000000    -1.290000000    -0.071000000
H     0.195000000    -2.353000000    -0.293000000
C    -0.687000000    -0.852000000     0.966000000
H    -1.058000000    -1.662000000     1.588000000
C    -0.984000000     0.534000000     1.119000000
C    -1.842000000     1.026000000     2.239000000
O    -2.415000000     0.158000000     2.913000000
O    -1.661000000     2.146000000     2.649000000
