17
-82.49532
C     0.965000000     0.659000000     0.956000000
H     1.633000000     1.193000000     1.626000000
C     0.226000000     1.318000000     0.020000000
H     0.475000000     2.363000000    -0.144000000
C    -0.564000000     0.654000000    -0.878000000
C    -1.301000000     1.198000000    -1.993000000
H    -1.049000000     0.692000000    -2.928000000
H    -2.387000000     1.263000000    -1.900000000
H    -1.019000000     2.232000000    -2.198000000
C    -0.761000000    -0.757000000    -0.719000000
H    -1.484000000    -1.211000000    -1.392000000
C    -0.031000000    -1.469000000     0.250000000
H    -0.159000000    -2.548000000     0.243000000
C     0.753000000    -0.674000000     1.173000000
C     1.427000000    -1.448000000     2.283000000
O     1.038000000    -2.532000000     2.629000000
O     2.237000000    -0.929000000     2.967000000
