17
-96.94964
C    -0.484000000     0.840000000     1.093000000
H    -0.706000000     1.623000000     1.814000000
C    -0.345000000     1.262000000    -0.199000000
H    -0.519000000     2.299000000    -0.477000000
C    -0.006000000     0.302000000    -1.170000000
C     0.201000000     0.773000000    -2.575000000
H    -0.699000000     1.268000000    -2.947000000
H     1.101000000     1.390000000    -2.618000000
H     0.384000000    -0.042000000    -3.278000000
C     0.277000000    -1.022000000    -0.824000000
H     0.634000000    -1.655000000    -1.633000000
C     0.200000000    -1.357000000     0.538000000
H     0.467000000    -2.385000000     0.768000000
C    -0.117000000    -0.442000000     1.504000000
C    -0.176000000    -0.846000000     2.976000000
O    -0.200000000    -2.040000000     3.291000000
O    -0.008000000     0.035000000     3.739000000
