17
-100.03428
C     0.614000000     0.749000000     1.059000000
H     1.090000000     1.415000000     1.774000000
C    -0.053000000     1.320000000    -0.041000000
H     0.045000000     2.398000000    -0.135000000
C    -0.649000000     0.483000000    -0.949000000
C    -1.220000000     1.001000000    -2.245000000
H    -0.582000000     1.804000000    -2.622000000
H    -1.218000000     0.214000000    -3.002000000
H    -2.228000000     1.416000000    -2.180000000
C    -0.638000000    -0.886000000    -0.730000000
H    -1.171000000    -1.510000000    -1.443000000
C     0.086000000    -1.454000000     0.342000000
H     0.162000000    -2.530000000     0.478000000
C     0.747000000    -0.595000000     1.267000000
C     1.524000000    -1.135000000     2.481000000
O     1.452000000    -2.320000000     2.690000000
O     2.042000000    -0.367000000     3.255000000
