17
-92.16738
C    -0.423000000     0.877000000     1.053000000
H    -0.674000000     1.669000000     1.755000000
C    -0.372000000     1.182000000    -0.291000000
H    -0.751000000     2.149000000    -0.613000000
C     0.042000000     0.243000000    -1.198000000
C    -0.004000000     0.586000000    -2.751000000
H     0.843000000     0.087000000    -3.226000000
H    -0.978000000     0.264000000    -3.126000000
H     0.123000000     1.654000000    -2.938000000
C     0.544000000    -0.995000000    -0.712000000
H     0.868000000    -1.725000000    -1.450000000
C     0.458000000    -1.317000000     0.677000000
H     0.826000000    -2.288000000     0.999000000
C    -0.053000000    -0.394000000     1.564000000
C    -0.129000000    -0.597000000     3.029000000
O    -0.033000000    -1.732000000     3.500000000
O    -0.292000000     0.329000000     3.727000000
