17
-95.17430
C    -0.706000000     1.201000000     0.439000000
H    -1.174000000     2.151000000     0.685000000
C     0.091000000     1.037000000    -0.691000000
H     0.324000000     1.845000000    -1.380000000
C     0.635000000    -0.173000000    -1.011000000
C     1.384000000    -0.249000000    -2.339000000
H     2.416000000     0.098000000    -2.270000000
H     1.363000000    -1.176000000    -2.917000000
H     0.947000000     0.514000000    -2.986000000
C     0.463000000    -1.246000000    -0.190000000
H     0.990000000    -2.171000000    -0.408000000
C    -0.160000000    -1.054000000     1.053000000
H    -0.224000000    -1.882000000     1.755000000
C    -0.801000000     0.152000000     1.356000000
C    -1.669000000     0.294000000     2.608000000
O    -1.773000000    -0.681000000     3.361000000
O    -2.109000000     1.348000000     2.928000000
