17
-94.92503
C    -1.183000000     0.796000000    -0.226000000
H    -2.046000000     1.416000000    -0.453000000
C    -0.147000000     0.662000000    -1.146000000
H    -0.196000000     1.225000000    -2.074000000
C     0.958000000    -0.152000000    -0.785000000
C     2.163000000    -0.216000000    -1.756000000
H     2.937000000     0.475000000    -1.415000000
H     2.490000000    -1.244000000    -1.926000000
H     1.757000000     0.117000000    -2.713000000
C     0.876000000    -0.872000000     0.396000000
H     1.751000000    -1.466000000     0.649000000
C    -0.197000000    -0.731000000     1.268000000
H    -0.129000000    -1.144000000     2.271000000
C    -1.220000000     0.058000000     0.960000000
C    -2.337000000     0.263000000     2.012000000
O    -2.453000000    -0.429000000     3.047000000
O    -3.023000000     1.243000000     1.889000000
