17
-93.42188
C    -1.404000000    -0.465000000    -0.254000000
H    -2.315000000    -0.750000000    -0.774000000
C    -0.227000000    -0.884000000    -0.839000000
H    -0.281000000    -1.534000000    -1.709000000
C     1.052000000    -0.389000000    -0.487000000
C     2.217000000    -1.049000000    -1.217000000
H     1.950000000    -2.002000000    -1.680000000
H     2.547000000    -0.382000000    -2.017000000
H     3.001000000    -1.123000000    -0.460000000
C     1.136000000     0.562000000     0.476000000
H     2.094000000     1.041000000     0.664000000
C    -0.008000000     0.998000000     1.134000000
H     0.056000000     1.817000000     1.846000000
C    -1.278000000     0.584000000     0.722000000
C    -2.508000000     1.103000000     1.319000000
O    -2.430000000     1.577000000     2.462000000
O    -3.598000000     0.894000000     0.814000000
