17
-94.63654
C    -1.078000000     0.432000000     0.924000000
H    -1.835000000     0.880000000     1.564000000
C    -0.501000000     1.185000000    -0.077000000
H    -0.852000000     2.145000000    -0.449000000
C     0.517000000     0.663000000    -0.875000000
C     0.925000000     1.446000000    -2.106000000
H     0.867000000     2.513000000    -1.881000000
H     1.901000000     1.091000000    -2.447000000
H     0.155000000     1.314000000    -2.869000000
C     1.016000000    -0.613000000    -0.621000000
H     1.882000000    -0.906000000    -1.210000000
C     0.499000000    -1.372000000     0.426000000
H     0.905000000    -2.372000000     0.554000000
C    -0.550000000    -0.815000000     1.213000000
C    -1.214000000    -1.674000000     2.278000000
O    -0.922000000    -2.851000000     2.370000000
O    -1.716000000    -1.074000000     3.199000000
