17
-96.51898
C    -0.619000000     0.721000000     1.119000000
H    -1.111000000     1.367000000     1.841000000
C    -0.038000000     1.334000000     0.003000000
H    -0.087000000     2.418000000    -0.053000000
C     0.569000000     0.544000000    -0.917000000
C     1.001000000     1.154000000    -2.252000000
H     1.776000000     0.500000000    -2.659000000
H     0.185000000     1.216000000    -2.975000000
H     1.362000000     2.180000000    -2.160000000
C     0.557000000    -0.859000000    -0.819000000
H     1.114000000    -1.349000000    -1.613000000
C    -0.017000000    -1.440000000     0.289000000
H     0.102000000    -2.501000000     0.490000000
C    -0.654000000    -0.667000000     1.223000000
C    -1.245000000    -1.368000000     2.450000000
O    -1.208000000    -2.582000000     2.657000000
O    -1.691000000    -0.666000000     3.377000000
