17
-96.78598
C    -1.229000000     0.398000000     0.626000000
H    -2.228000000     0.621000000     0.992000000
C    -0.762000000     1.014000000    -0.530000000
H    -1.462000000     1.679000000    -1.030000000
C     0.468000000     0.522000000    -1.023000000
C     1.097000000     1.033000000    -2.314000000
H     2.186000000     1.100000000    -2.285000000
H     0.799000000     0.368000000    -3.128000000
H     0.804000000     2.067000000    -2.506000000
C     1.239000000    -0.348000000    -0.254000000
H     2.204000000    -0.765000000    -0.529000000
C     0.645000000    -0.980000000     0.852000000
H     1.187000000    -1.802000000     1.311000000
C    -0.603000000    -0.601000000     1.308000000
C    -1.287000000    -1.247000000     2.534000000
O    -0.614000000    -2.043000000     3.140000000
O    -2.442000000    -1.017000000     2.828000000
