17
-97.87259
C     0.457000000    -0.278000000     1.433000000
H     0.746000000    -0.542000000     2.447000000
C     1.112000000     0.589000000     0.535000000
H     2.017000000     1.152000000     0.750000000
C     0.605000000     0.709000000    -0.800000000
C     1.326000000     1.575000000    -1.778000000
H     1.569000000     1.048000000    -2.704000000
H     0.519000000     2.274000000    -2.004000000
H     2.175000000     2.163000000    -1.422000000
C    -0.586000000     0.071000000    -1.190000000
H    -0.911000000     0.170000000    -2.222000000
C    -1.292000000    -0.644000000    -0.281000000
H    -2.231000000    -1.091000000    -0.597000000
C    -0.737000000    -0.924000000     1.019000000
C    -1.410000000    -1.819000000     2.015000000
O    -2.368000000    -2.490000000     1.611000000
O    -0.987000000    -1.961000000     3.186000000
