17
-95.62275
C    -1.181000000     0.071000000    -0.823000000
H    -2.056000000    -0.061000000    -1.455000000
C    -0.028000000    -0.506000000    -1.152000000
H     0.031000000    -1.077000000    -2.075000000
C     1.121000000    -0.480000000    -0.301000000
C     2.338000000    -1.265000000    -0.689000000
H     2.424000000    -1.054000000    -1.757000000
H     3.233000000    -0.903000000    -0.178000000
H     2.180000000    -2.329000000    -0.501000000
C     0.977000000     0.124000000     0.907000000
H     1.779000000    -0.050000000     1.620000000
C    -0.193000000     0.842000000     1.210000000
H    -0.209000000     1.384000000     2.152000000
C    -1.316000000     0.689000000     0.414000000
C    -2.685000000     1.336000000     0.759000000
O    -2.773000000     1.848000000     1.884000000
O    -3.641000000     1.431000000    -0.017000000
