17
-87.06014
C    -0.715000000     0.760000000     1.048000000
H    -1.114000000     1.472000000     1.766000000
C    -0.441000000     1.169000000    -0.249000000
H    -0.733000000     2.163000000    -0.578000000
C     0.224000000     0.374000000    -1.187000000
C     0.670000000     0.899000000    -2.545000000
H     1.748000000     1.044000000    -2.451000000
H     0.415000000     0.202000000    -3.345000000
H     0.102000000     1.814000000    -2.727000000
C     0.457000000    -0.966000000    -0.844000000
H     0.964000000    -1.616000000    -1.553000000
C     0.234000000    -1.389000000     0.521000000
H     0.248000000    -2.406000000     0.905000000
C    -0.342000000    -0.515000000     1.453000000
C    -0.587000000    -0.912000000     2.868000000
O    -0.459000000    -2.032000000     3.196000000
O    -0.675000000    -0.067000000     3.723000000
