17
-102.45256
C    -0.217000000    -0.972000000     1.064000000
H    -0.196000000    -1.697000000     1.874000000
C     1.035000000    -0.479000000     0.676000000
H     1.982000000    -0.893000000     1.011000000
C     1.064000000     0.514000000    -0.325000000
C     2.378000000     1.196000000    -0.662000000
H     2.795000000     1.736000000     0.190000000
H     3.018000000     0.363000000    -0.961000000
H     2.297000000     1.844000000    -1.537000000
C    -0.079000000     0.867000000    -0.956000000
H    -0.084000000     1.590000000    -1.769000000
C    -1.356000000     0.313000000    -0.619000000
H    -2.222000000     0.520000000    -1.243000000
C    -1.396000000    -0.603000000     0.410000000
C    -2.697000000    -1.236000000     0.873000000
O    -3.735000000    -0.967000000     0.237000000
O    -2.584000000    -2.094000000     1.740000000
