17
-97.12943
C     0.726000000    -1.264000000     0.377000000
H     1.275000000    -2.184000000     0.557000000
C     1.171000000    -0.313000000    -0.555000000
H     2.073000000    -0.536000000    -1.119000000
C     0.388000000     0.755000000    -0.861000000
C     0.888000000     1.859000000    -1.812000000
H     1.498000000     2.615000000    -1.312000000
H     1.358000000     1.479000000    -2.721000000
H     0.043000000     2.386000000    -2.259000000
C    -0.773000000     1.009000000    -0.149000000
H    -1.246000000     1.968000000    -0.340000000
C    -1.243000000     0.102000000     0.757000000
H    -2.046000000     0.391000000     1.430000000
C    -0.513000000    -1.104000000     1.038000000
C    -1.093000000    -2.160000000     2.003000000
O    -2.205000000    -2.015000000     2.507000000
O    -0.295000000    -2.994000000     2.467000000
