17
-98.28904
C     0.016000000    -1.240000000     0.715000000
H     0.021000000    -2.244000000     1.130000000
C     1.091000000    -0.668000000     0.056000000
H     2.069000000    -1.140000000     0.112000000
C     0.958000000     0.555000000    -0.596000000
C     2.172000000     1.012000000    -1.442000000
H     3.088000000     0.993000000    -0.848000000
H     2.372000000     0.288000000    -2.235000000
H     2.056000000     2.015000000    -1.857000000
C    -0.310000000     1.172000000    -0.558000000
H    -0.501000000     2.139000000    -1.015000000
C    -1.359000000     0.623000000     0.170000000
H    -2.295000000     1.175000000     0.196000000
C    -1.253000000    -0.571000000     0.848000000
C    -2.400000000    -1.179000000     1.642000000
O    -3.393000000    -0.544000000     1.860000000
O    -2.335000000    -2.392000000     1.822000000
