17
-94.48985
C    -1.379000000     0.230000000    -0.392000000
H    -2.421000000     0.262000000    -0.699000000
C    -0.558000000    -0.776000000    -0.899000000
H    -1.002000000    -1.596000000    -1.456000000
C     0.738000000    -0.887000000    -0.392000000
C     1.494000000    -2.045000000    -0.954000000
H     1.355000000    -3.070000000    -0.603000000
H     1.270000000    -2.037000000    -2.022000000
H     2.561000000    -1.813000000    -0.937000000
C     1.241000000    -0.024000000     0.565000000
H     2.216000000    -0.125000000     1.035000000
C     0.432000000     1.023000000     0.991000000
H     0.786000000     1.716000000     1.750000000
C    -0.908000000     1.156000000     0.567000000
C    -1.728000000     2.323000000     1.008000000
O    -1.212000000     3.089000000     1.789000000
O    -2.893000000     2.574000000     0.657000000
