17
-99.47117
C     0.736000000    -1.349000000    -0.059000000
H     1.310000000    -2.269000000    -0.135000000
C     1.142000000    -0.135000000    -0.680000000
H     2.043000000    -0.164000000    -1.287000000
C     0.351000000     0.985000000    -0.579000000
C     0.646000000     2.303000000    -1.325000000
H     0.534000000     3.152000000    -0.647000000
H     1.661000000     2.404000000    -1.714000000
H    -0.014000000     2.495000000    -2.174000000
C    -0.945000000     0.912000000    -0.006000000
H    -1.607000000     1.761000000    -0.155000000
C    -1.210000000    -0.180000000     0.822000000
H    -2.138000000    -0.110000000     1.384000000
C    -0.341000000    -1.300000000     0.838000000
C    -0.642000000    -2.531000000     1.662000000
O    -1.742000000    -2.566000000     2.242000000
O     0.214000000    -3.400000000     1.809000000
