17
-81.57812
C    -1.192000000     0.008000000    -0.907000000
H    -2.085000000    -0.074000000    -1.520000000
C    -0.076000000    -0.799000000    -1.027000000
H    -0.024000000    -1.534000000    -1.826000000
C     1.023000000    -0.632000000    -0.245000000
C     2.316000000    -1.433000000    -0.375000000
H     3.153000000    -1.020000000     0.192000000
H     2.053000000    -2.390000000     0.082000000
H     2.588000000    -1.603000000    -1.419000000
C     0.949000000     0.241000000     0.899000000
H     1.732000000     0.284000000     1.651000000
C    -0.235000000     0.955000000     1.032000000
H    -0.303000000     1.597000000     1.908000000
C    -1.285000000     0.852000000     0.182000000
C    -2.619000000     1.483000000     0.474000000
O    -2.642000000     2.326000000     1.378000000
O    -3.353000000     1.743000000    -0.486000000
