17
-96.86205
C     0.499000000    -0.891000000     1.029000000
H     0.912000000    -1.653000000     1.686000000
C     1.146000000    -0.556000000    -0.171000000
H     2.103000000    -1.019000000    -0.396000000
C     0.583000000     0.290000000    -1.108000000
C     1.254000000     0.596000000    -2.421000000
H     1.347000000     1.681000000    -2.507000000
H     2.256000000     0.163000000    -2.413000000
H     0.595000000     0.285000000    -3.234000000
C    -0.697000000     0.801000000    -0.796000000
H    -1.196000000     1.544000000    -1.413000000
C    -1.310000000     0.493000000     0.425000000
H    -2.232000000     0.985000000     0.726000000
C    -0.710000000    -0.335000000     1.351000000
C    -1.393000000    -0.747000000     2.700000000
O    -2.274000000    -0.051000000     3.140000000
O    -0.889000000    -1.584000000     3.403000000
