17
-79.13985
C     0.084000000    -1.398000000    -0.479000000
H     0.345000000    -2.344000000    -0.946000000
C     0.559000000    -0.255000000    -1.150000000
H     1.158000000    -0.263000000    -2.057000000
C     0.272000000     1.016000000    -0.638000000
C     0.658000000     2.190000000    -1.439000000
H     1.732000000     2.387000000    -1.448000000
H     0.337000000     2.119000000    -2.480000000
H     0.355000000     3.148000000    -1.010000000
C    -0.434000000     1.148000000     0.585000000
H    -0.664000000     2.104000000     1.049000000
C    -0.781000000    -0.051000000     1.270000000
H    -1.168000000     0.061000000     2.280000000
C    -0.551000000    -1.337000000     0.756000000
C    -0.694000000    -2.534000000     1.618000000
O    -1.209000000    -2.471000000     2.641000000
O     0.007000000    -3.525000000     1.456000000
