17
-91.52231
C     0.929000000    -1.171000000     0.137000000
H     1.685000000    -1.952000000     0.096000000
C     1.027000000    -0.112000000    -0.792000000
H     1.815000000    -0.161000000    -1.539000000
C     0.136000000     0.937000000    -0.759000000
C     0.312000000     2.127000000    -1.717000000
H    -0.037000000     2.052000000    -2.749000000
H    -0.253000000     2.952000000    -1.279000000
H     1.337000000     2.501000000    -1.750000000
C    -0.892000000     0.883000000     0.144000000
H    -1.619000000     1.686000000     0.054000000
C    -1.125000000    -0.172000000     1.000000000
H    -1.935000000    -0.222000000     1.723000000
C    -0.185000000    -1.218000000     1.019000000
C    -0.309000000    -2.381000000     1.948000000
O    -1.307000000    -2.437000000     2.619000000
O     0.415000000    -3.312000000     1.847000000
