17
-98.41818
C     0.868000000    -1.145000000     0.190000000
H     1.517000000    -2.010000000     0.304000000
C     1.144000000    -0.053000000    -0.605000000
H     2.094000000    -0.150000000    -1.125000000
C     0.219000000     0.990000000    -0.736000000
C     0.487000000     2.099000000    -1.741000000
H     0.369000000     3.144000000    -1.447000000
H     1.511000000     1.945000000    -2.088000000
H    -0.145000000     1.787000000    -2.576000000
C    -0.918000000     0.961000000     0.063000000
H    -1.620000000     1.791000000     0.058000000
C    -1.165000000    -0.108000000     0.883000000
H    -1.997000000    -0.073000000     1.582000000
C    -0.316000000    -1.186000000     0.919000000
C    -0.597000000    -2.341000000     1.883000000
O    -1.583000000    -2.342000000     2.608000000
O     0.138000000    -3.310000000     1.835000000
