17
-96.88329
C    -0.443000000    -0.926000000     1.031000000
H    -0.790000000    -1.673000000     1.740000000
C     0.438000000    -1.289000000     0.078000000
H     0.757000000    -2.324000000     0.172000000
C     0.691000000    -0.383000000    -0.964000000
C     1.544000000    -0.696000000    -2.161000000
H     0.974000000    -0.555000000    -3.081000000
H     2.381000000    -0.007000000    -2.284000000
H     1.911000000    -1.719000000    -2.053000000
C     0.219000000     0.899000000    -0.832000000
H     0.494000000     1.665000000    -1.553000000
C    -0.573000000     1.321000000     0.258000000
H    -0.898000000     2.358000000     0.276000000
C    -0.930000000     0.410000000     1.187000000
C    -1.710000000     0.852000000     2.396000000
O    -2.235000000     1.969000000     2.442000000
O    -1.828000000     0.098000000     3.350000000
