17
-94.03647
C     0.215000000    -1.094000000     1.028000000
H     0.327000000    -2.001000000     1.617000000
C     0.463000000    -1.183000000    -0.385000000
H     0.726000000    -2.202000000    -0.658000000
C     0.227000000    -0.105000000    -1.180000000
C     0.379000000    -0.272000000    -2.688000000
H    -0.138000000    -1.193000000    -2.969000000
H    -0.238000000     0.489000000    -3.171000000
H     1.417000000    -0.213000000    -3.022000000
C    -0.183000000     1.099000000    -0.684000000
H    -0.420000000     1.869000000    -1.414000000
C    -0.213000000     1.305000000     0.685000000
H    -0.483000000     2.284000000     1.072000000
C    -0.113000000     0.210000000     1.585000000
C    -0.493000000     0.310000000     3.017000000
O    -0.986000000     1.367000000     3.398000000
O    -0.484000000    -0.678000000     3.762000000
