17
-95.44563
C    -0.074000000    -1.200000000     0.836000000
H    -0.038000000    -2.181000000     1.302000000
C     0.165000000    -1.143000000    -0.558000000
H     0.420000000    -2.110000000    -0.985000000
C     0.097000000     0.035000000    -1.238000000
C     0.324000000     0.151000000    -2.760000000
H     1.119000000    -0.528000000    -3.072000000
H    -0.588000000    -0.247000000    -3.211000000
H     0.369000000     1.199000000    -3.066000000
C    -0.131000000     1.208000000    -0.511000000
H    -0.164000000     2.154000000    -1.047000000
C    -0.239000000     1.155000000     0.860000000
H    -0.467000000     2.083000000     1.378000000
C    -0.225000000    -0.095000000     1.575000000
C    -0.246000000    -0.138000000     3.092000000
O    -0.101000000     0.879000000     3.775000000
O    -0.222000000    -1.219000000     3.622000000
