17
-95.62115
C    -1.118000000     0.017000000    -0.978000000
H    -1.867000000    -0.115000000    -1.754000000
C     0.002000000    -0.830000000    -0.965000000
H     0.153000000    -1.534000000    -1.780000000
C     1.050000000    -0.660000000    -0.064000000
C     2.218000000    -1.660000000    -0.084000000
H     2.732000000    -1.791000000    -1.038000000
H     3.051000000    -1.413000000     0.578000000
H     1.854000000    -2.633000000     0.251000000
C     0.795000000     0.230000000     0.963000000
H     1.471000000     0.242000000     1.814000000
C    -0.292000000     1.046000000     1.074000000
H    -0.358000000     1.810000000     1.844000000
C    -1.282000000     1.000000000     0.056000000
C    -2.487000000     1.880000000     0.021000000
O    -2.521000000     2.780000000     0.812000000
O    -3.408000000     1.635000000    -0.749000000
