17
-96.61910
C    -0.459000000    -0.233000000     1.400000000
H    -0.812000000    -0.576000000     2.369000000
C    -0.192000000    -1.185000000     0.409000000
H    -0.502000000    -2.207000000     0.608000000
C     0.340000000    -0.861000000    -0.849000000
C     0.361000000    -1.934000000    -1.933000000
H     1.376000000    -2.161000000    -2.267000000
H    -0.084000000    -2.859000000    -1.561000000
H    -0.039000000    -1.546000000    -2.872000000
C     0.584000000     0.467000000    -1.081000000
H     0.900000000     0.681000000    -2.099000000
C     0.422000000     1.460000000    -0.077000000
H     0.630000000     2.504000000    -0.298000000
C    -0.116000000     1.134000000     1.141000000
C    -0.615000000     2.182000000     2.098000000
O    -1.020000000     3.247000000     1.689000000
O    -0.770000000     1.892000000     3.315000000
