17
-89.64949
C     1.025000000    -1.089000000     0.235000000
H     1.881000000    -1.721000000     0.459000000
C     0.948000000    -0.226000000    -0.901000000
H     1.800000000    -0.112000000    -1.566000000
C    -0.101000000     0.595000000    -1.103000000
C     0.027000000     1.732000000    -2.070000000
H    -0.751000000     1.763000000    -2.836000000
H     0.045000000     2.646000000    -1.472000000
H     0.946000000     1.784000000    -2.658000000
C    -1.117000000     0.595000000    -0.145000000
H    -1.912000000     1.328000000    -0.263000000
C    -1.119000000    -0.143000000     1.015000000
H    -1.844000000     0.029000000     1.806000000
C    -0.027000000    -0.971000000     1.198000000
C     0.077000000    -1.787000000     2.450000000
O    -0.974000000    -2.073000000     2.984000000
O     1.090000000    -2.351000000     2.859000000
