17
-91.43182
C     0.978000000    -0.872000000     0.645000000
H     1.815000000    -1.365000000     1.131000000
C     1.102000000    -0.145000000    -0.523000000
H     2.130000000    -0.061000000    -0.865000000
C     0.106000000     0.639000000    -1.067000000
C     0.499000000     1.456000000    -2.218000000
H     0.709000000     0.885000000    -3.125000000
H    -0.276000000     2.191000000    -2.442000000
H     1.377000000     2.077000000    -2.031000000
C    -1.135000000     0.659000000    -0.408000000
H    -1.802000000     1.450000000    -0.744000000
C    -1.382000000    -0.188000000     0.669000000
H    -2.352000000    -0.010000000     1.126000000
C    -0.300000000    -0.914000000     1.251000000
C    -0.462000000    -1.767000000     2.498000000
O    -1.535000000    -1.833000000     2.991000000
O     0.535000000    -2.205000000     3.107000000
