17
-99.25001
C     0.802000000    -1.060000000     0.636000000
H     1.359000000    -1.887000000     1.070000000
C     0.818000000    -0.716000000    -0.690000000
H     1.493000000    -1.228000000    -1.371000000
C    -0.045000000     0.289000000    -1.209000000
C    -0.070000000     0.507000000    -2.726000000
H     0.355000000     1.473000000    -3.008000000
H     0.598000000    -0.252000000    -3.138000000
H    -1.056000000     0.356000000    -3.171000000
C    -0.873000000     0.915000000    -0.342000000
H    -1.558000000     1.644000000    -0.768000000
C    -0.780000000     0.690000000     1.046000000
H    -1.364000000     1.325000000     1.706000000
C     0.030000000    -0.312000000     1.564000000
C     0.069000000    -0.540000000     3.078000000
O    -0.281000000     0.364000000     3.828000000
O     0.503000000    -1.572000000     3.494000000
