17
-92.61740
C     1.195000000     0.005000000     0.809000000
H     2.130000000    -0.139000000     1.344000000
C     1.141000000    -0.236000000    -0.575000000
H     2.064000000    -0.478000000    -1.095000000
C    -0.102000000    -0.099000000    -1.235000000
C    -0.187000000    -0.324000000    -2.773000000
H     0.041000000    -1.361000000    -3.027000000
H    -1.165000000     0.006000000    -3.130000000
H     0.589000000     0.257000000    -3.275000000
C    -1.254000000     0.067000000    -0.469000000
H    -2.219000000     0.017000000    -0.968000000
C    -1.170000000     0.208000000     0.939000000
H    -2.060000000     0.495000000     1.492000000
C     0.095000000     0.257000000     1.591000000
C     0.270000000     0.382000000     3.030000000
O    -0.691000000     0.243000000     3.748000000
O     1.326000000     0.705000000     3.598000000
