17
-98.52602
C     0.398000000     0.593000000     1.323000000
H     0.664000000     1.081000000     2.257000000
C     0.988000000     0.974000000     0.105000000
H     1.601000000     1.868000000     0.024000000
C     0.457000000     0.341000000    -1.060000000
C     0.798000000     0.863000000    -2.451000000
H     0.340000000     0.300000000    -3.268000000
H     0.474000000     1.893000000    -2.616000000
H     1.867000000     0.722000000    -2.622000000
C    -0.486000000    -0.715000000    -1.007000000
H    -0.910000000    -1.120000000    -1.923000000
C    -0.870000000    -1.199000000     0.195000000
H    -1.463000000    -2.109000000     0.160000000
C    -0.498000000    -0.517000000     1.390000000
C    -0.976000000    -0.910000000     2.802000000
O    -1.738000000    -1.878000000     2.955000000
O    -0.648000000    -0.191000000     3.737000000
