17
-94.69308
C     0.909000000    -0.492000000     1.131000000
H     1.622000000    -0.884000000     1.852000000
C     1.393000000     0.179000000    -0.002000000
H     2.442000000     0.464000000    -0.019000000
C     0.465000000     0.566000000    -0.962000000
C     0.834000000     1.371000000    -2.167000000
H     0.222000000     2.272000000    -2.087000000
H     1.902000000     1.590000000    -2.115000000
H     0.565000000     0.910000000    -3.120000000
C    -0.888000000     0.383000000    -0.808000000
H    -1.589000000     0.804000000    -1.524000000
C    -1.385000000    -0.256000000     0.291000000
H    -2.422000000    -0.547000000     0.434000000
C    -0.446000000    -0.787000000     1.222000000
C    -1.064000000    -1.628000000     2.327000000
O    -2.249000000    -1.717000000     2.501000000
O    -0.303000000    -2.235000000     3.047000000
