17
-85.49088
C    -0.655000000     1.017000000     0.790000000
H    -1.176000000     1.876000000     1.206000000
C     0.290000000     1.225000000    -0.240000000
H     0.552000000     2.257000000    -0.455000000
C     0.786000000     0.161000000    -0.936000000
C     1.743000000     0.488000000    -2.016000000
H     2.644000000    -0.097000000    -1.824000000
H     1.296000000     0.249000000    -2.983000000
H     2.125000000     1.506000000    -2.123000000
C     0.315000000    -1.089000000    -0.624000000
H     0.791000000    -1.900000000    -1.170000000
C    -0.433000000    -1.341000000     0.491000000
H    -0.612000000    -2.336000000     0.889000000
C    -1.014000000    -0.309000000     1.171000000
C    -2.021000000    -0.474000000     2.220000000
O    -2.480000000    -1.572000000     2.424000000
O    -2.151000000     0.342000000     3.172000000
