17
-95.64860
C     0.393000000     0.595000000     1.248000000
H     0.732000000     1.180000000     2.100000000
C     1.003000000     0.799000000     0.056000000
H     1.841000000     1.489000000    -0.007000000
C     0.575000000     0.075000000    -1.051000000
C     1.210000000     0.534000000    -2.374000000
H     0.589000000     0.149000000    -3.185000000
H     1.254000000     1.625000000    -2.373000000
H     2.240000000     0.173000000    -2.397000000
C    -0.489000000    -0.825000000    -1.010000000
H    -0.762000000    -1.388000000    -1.899000000
C    -1.103000000    -1.042000000     0.183000000
H    -1.844000000    -1.790000000     0.452000000
C    -0.740000000    -0.277000000     1.311000000
C    -1.446000000    -0.390000000     2.655000000
O    -2.387000000    -1.170000000     2.716000000
O    -1.074000000     0.260000000     3.579000000
