17
-95.17650
C    -0.740000000    -0.338000000    -1.258000000
H    -1.184000000    -0.401000000    -2.249000000
C     0.655000000    -0.146000000    -1.126000000
H     1.236000000    -0.127000000    -2.044000000
C     1.198000000     0.146000000     0.133000000
C     2.718000000     0.325000000     0.216000000
H     3.236000000    -0.486000000    -0.300000000
H     3.065000000     1.266000000    -0.215000000
H     2.898000000     0.507000000     1.278000000
C     0.399000000     0.178000000     1.264000000
H     0.779000000     0.315000000     2.273000000
C    -0.960000000    -0.002000000     1.122000000
H    -1.543000000     0.157000000     2.025000000
C    -1.513000000    -0.335000000    -0.083000000
C    -2.993000000    -0.359000000    -0.269000000
O    -3.748000000    -0.027000000     0.613000000
O    -3.496000000    -0.680000000    -1.374000000
