17
-70.55024
C     0.716000000    -0.122000000     1.312000000
H     1.365000000    -0.162000000     2.183000000
C     1.277000000     0.276000000     0.167000000
H     2.348000000     0.405000000     0.306000000
C     0.519000000     0.419000000    -1.036000000
C     1.050000000     1.085000000    -2.212000000
H     0.276000000     1.788000000    -2.525000000
H     1.993000000     1.584000000    -1.976000000
H     1.174000000     0.332000000    -2.994000000
C    -0.828000000     0.109000000    -1.081000000
H    -1.353000000     0.225000000    -2.026000000
C    -1.442000000    -0.462000000     0.083000000
H    -2.477000000    -0.796000000     0.084000000
C    -0.634000000    -0.558000000     1.290000000
C    -1.158000000    -1.235000000     2.441000000
O    -2.330000000    -1.388000000     2.603000000
O    -0.495000000    -1.495000000     3.382000000
