17
-85.35494
C     0.796000000    -0.166000000     1.219000000
H     1.483000000    -0.300000000     2.050000000
C     1.291000000     0.227000000    -0.029000000
H     2.358000000     0.360000000    -0.185000000
C     0.452000000     0.268000000    -1.144000000
C     0.993000000     0.549000000    -2.526000000
H     1.254000000     1.609000000    -2.530000000
H     1.795000000    -0.154000000    -2.764000000
H     0.223000000     0.514000000    -3.300000000
C    -0.895000000     0.043000000    -0.891000000
H    -1.541000000     0.023000000    -1.764000000
C    -1.403000000    -0.193000000     0.381000000
H    -2.470000000    -0.398000000     0.423000000
C    -0.598000000    -0.274000000     1.504000000
C    -1.062000000    -0.685000000     2.824000000
O    -2.273000000    -0.758000000     2.944000000
O    -0.409000000    -0.671000000     3.791000000
