17
-98.57301
C    -0.131000000    -0.022000000     1.411000000
H    -0.189000000     0.114000000     2.487000000
C     1.023000000     0.448000000     0.721000000
H     1.868000000     0.820000000     1.296000000
C     1.010000000     0.409000000    -0.664000000
C     2.246000000     0.842000000    -1.384000000
H     2.116000000     1.860000000    -1.755000000
H     3.094000000     0.792000000    -0.697000000
H     2.485000000     0.255000000    -2.273000000
C    -0.164000000    -0.032000000    -1.294000000
H    -0.123000000     0.013000000    -2.379000000
C    -1.253000000    -0.550000000    -0.581000000
H    -2.111000000    -0.892000000    -1.153000000
C    -1.311000000    -0.557000000     0.805000000
C    -2.516000000    -1.046000000     1.613000000
O    -3.657000000    -0.909000000     1.138000000
O    -2.386000000    -1.547000000     2.702000000
