17
-94.48313
C    -1.314000000     0.186000000     0.709000000
H    -2.217000000     0.396000000     1.277000000
C    -0.795000000     1.072000000    -0.281000000
H    -1.298000000     1.966000000    -0.641000000
C     0.374000000     0.751000000    -0.965000000
C     1.057000000     1.565000000    -2.004000000
H     0.328000000     2.337000000    -2.254000000
H     1.899000000     2.010000000    -1.469000000
H     1.320000000     0.947000000    -2.865000000
C     0.998000000    -0.423000000    -0.646000000
H     1.977000000    -0.642000000    -1.064000000
C     0.519000000    -1.313000000     0.322000000
H     1.060000000    -2.224000000     0.565000000
C    -0.620000000    -0.967000000     1.095000000
C    -0.995000000    -1.671000000     2.409000000
O    -0.136000000    -2.248000000     3.046000000
O    -2.164000000    -1.738000000     2.769000000
