17
-100.41254
C    -1.124000000     0.450000000     0.848000000
H    -1.954000000     0.910000000     1.379000000
C    -0.693000000     1.082000000    -0.308000000
H    -1.238000000     1.938000000    -0.697000000
C     0.455000000     0.583000000    -0.998000000
C     0.907000000     1.251000000    -2.350000000
H     1.775000000     0.697000000    -2.714000000
H     0.155000000     1.179000000    -3.139000000
H     1.196000000     2.277000000    -2.114000000
C     1.112000000    -0.534000000    -0.444000000
H     1.893000000    -0.964000000    -1.066000000
C     0.655000000    -1.144000000     0.731000000
H     1.154000000    -2.057000000     1.045000000
C    -0.512000000    -0.714000000     1.372000000
C    -1.089000000    -1.466000000     2.526000000
O    -0.402000000    -2.210000000     3.196000000
O    -2.296000000    -1.277000000     2.731000000
