17
-96.75234
C    -0.646000000     1.031000000     0.932000000
H    -0.937000000     1.918000000     1.490000000
C    -0.296000000     1.211000000    -0.439000000
H    -0.350000000     2.216000000    -0.850000000
C     0.241000000     0.167000000    -1.269000000
C     0.904000000     0.492000000    -2.572000000
H     1.763000000    -0.153000000    -2.765000000
H     0.122000000     0.374000000    -3.325000000
H     1.326000000     1.496000000    -2.506000000
C     0.359000000    -1.077000000    -0.648000000
H     0.722000000    -1.988000000    -1.116000000
C    -0.036000000    -1.307000000     0.657000000
H     0.251000000    -2.266000000     1.081000000
C    -0.582000000    -0.273000000     1.432000000
C    -0.916000000    -0.585000000     2.923000000
O    -0.042000000    -1.202000000     3.493000000
O    -1.878000000    -0.046000000     3.476000000
