17
-87.69290
C    -0.625000000    -1.331000000     0.353000000
H    -1.215000000    -2.202000000     0.628000000
C    -1.348000000    -0.085000000     0.215000000
H    -2.412000000    -0.072000000     0.437000000
C    -0.628000000     1.024000000    -0.245000000
C    -1.268000000     2.433000000    -0.302000000
H    -0.925000000     2.991000000     0.572000000
H    -1.055000000     2.926000000    -1.253000000
H    -2.355000000     2.373000000    -0.220000000
C     0.754000000     0.946000000    -0.433000000
H     1.275000000     1.828000000    -0.796000000
C     1.482000000    -0.235000000    -0.208000000
H     2.547000000    -0.294000000    -0.413000000
C     0.784000000    -1.379000000     0.171000000
C     1.464000000    -2.624000000     0.371000000
O     2.591000000    -2.800000000     0.072000000
O     0.937000000    -3.495000000     1.056000000
