17
-90.15227
C    -1.081000000    -0.798000000     0.613000000
H    -1.891000000    -1.184000000     1.227000000
C    -0.870000000     0.562000000     0.763000000
H    -1.525000000     1.192000000     1.359000000
C     0.079000000     1.250000000     0.027000000
C     0.471000000     2.723000000     0.290000000
H    -0.122000000     3.109000000     1.122000000
H     1.554000000     2.866000000     0.315000000
H     0.143000000     3.280000000    -0.589000000
C     0.865000000     0.480000000    -0.793000000
H     1.629000000     0.990000000    -1.374000000
C     0.721000000    -0.928000000    -0.932000000
H     1.366000000    -1.476000000    -1.615000000
C    -0.286000000    -1.553000000    -0.151000000
C    -0.327000000    -3.060000000    -0.132000000
O     0.348000000    -3.803000000    -0.822000000
O    -1.069000000    -3.648000000     0.685000000
