17
-98.51974
C    -0.116000000    -1.011000000     1.049000000
H    -0.373000000    -1.675000000     1.870000000
C    -0.834000000     0.164000000     1.017000000
H    -1.547000000     0.383000000     1.808000000
C    -0.648000000     1.043000000    -0.007000000
C    -1.489000000     2.228000000    -0.212000000
H    -1.586000000     2.748000000     0.743000000
H    -0.970000000     2.894000000    -0.905000000
H    -2.455000000     2.015000000    -0.674000000
C     0.351000000     0.826000000    -0.941000000
H     0.604000000     1.475000000    -1.776000000
C     1.083000000    -0.362000000    -0.892000000
H     1.799000000    -0.548000000    -1.688000000
C     0.882000000    -1.300000000     0.119000000
C     1.542000000    -2.633000000     0.087000000
O     2.611000000    -2.798000000    -0.535000000
O     1.144000000    -3.457000000     0.932000000
