17
-86.56740
C    -0.754000000    -0.502000000     1.114000000
H    -1.463000000    -0.939000000     1.812000000
C    -0.828000000     0.799000000     0.680000000
H    -1.523000000     1.472000000     1.175000000
C    -0.017000000     1.128000000    -0.342000000
C    -0.141000000     2.554000000    -0.918000000
H    -0.789000000     2.581000000    -1.797000000
H    -0.421000000     3.205000000    -0.088000000
H     0.872000000     2.865000000    -1.180000000
C     0.850000000     0.261000000    -0.992000000
H     1.563000000     0.501000000    -1.777000000
C     0.928000000    -1.067000000    -0.507000000
H     1.669000000    -1.753000000    -0.909000000
C     0.032000000    -1.420000000     0.493000000
C     0.023000000    -2.869000000     0.959000000
O     0.649000000    -3.731000000     0.402000000
O    -0.655000000    -3.093000000     1.882000000
