17
-91.84290
C    -1.333000000     0.336000000     0.581000000
H    -2.233000000     0.838000000     0.928000000
C    -0.751000000     0.971000000    -0.518000000
H    -1.202000000     1.835000000    -0.999000000
C     0.476000000     0.459000000    -1.034000000
C     1.108000000     1.192000000    -2.207000000
H     0.694000000     2.180000000    -2.416000000
H     2.128000000     1.480000000    -1.946000000
H     1.251000000     0.556000000    -3.083000000
C     1.016000000    -0.665000000    -0.454000000
H     1.888000000    -1.088000000    -0.947000000
C     0.489000000    -1.249000000     0.690000000
H     0.943000000    -2.125000000     1.147000000
C    -0.678000000    -0.735000000     1.250000000
C    -1.177000000    -1.234000000     2.590000000
O    -0.668000000    -2.173000000     3.123000000
O    -1.949000000    -0.586000000     3.290000000
