17
-90.71877
C    -1.195000000    -0.216000000     0.766000000
H    -2.102000000    -0.220000000     1.365000000
C    -0.892000000     0.931000000     0.121000000
H    -1.629000000     1.726000000     0.198000000
C     0.249000000     1.005000000    -0.687000000
C     0.465000000     2.221000000    -1.524000000
H     1.280000000     2.851000000    -1.161000000
H     0.547000000     2.010000000    -2.593000000
H    -0.468000000     2.787000000    -1.542000000
C     1.195000000    -0.058000000    -0.600000000
H     2.219000000     0.122000000    -0.917000000
C     0.922000000    -1.252000000     0.095000000
H     1.757000000    -1.919000000     0.293000000
C    -0.328000000    -1.325000000     0.751000000
C    -0.635000000    -2.575000000     1.533000000
O    -0.002000000    -3.583000000     1.388000000
O    -1.388000000    -2.508000000     2.507000000
