17
-91.51427
C    -1.082000000    -0.961000000     0.191000000
H    -2.002000000    -1.539000000     0.154000000
C    -1.011000000     0.115000000    -0.689000000
H    -1.775000000     0.230000000    -1.453000000
C     0.123000000     0.953000000    -0.773000000
C     0.085000000     1.994000000    -1.906000000
H     1.020000000     2.195000000    -2.434000000
H    -0.596000000     1.629000000    -2.677000000
H    -0.233000000     2.990000000    -1.592000000
C     1.137000000     0.743000000     0.130000000
H     2.054000000     1.321000000     0.214000000
C     1.079000000    -0.347000000     1.010000000
H     1.946000000    -0.411000000     1.664000000
C     0.024000000    -1.228000000     1.021000000
C    -0.174000000    -2.293000000     2.107000000
O     0.475000000    -2.295000000     3.081000000
O    -1.075000000    -3.104000000     1.955000000
