17
-97.91290
C    -0.327000000    -1.260000000     0.749000000
H    -0.634000000    -2.125000000     1.332000000
C    -1.175000000    -0.217000000     0.470000000
H    -2.204000000    -0.338000000     0.798000000
C    -0.767000000     0.972000000    -0.175000000
C    -1.770000000     2.001000000    -0.612000000
H    -2.789000000     1.698000000    -0.363000000
H    -1.527000000     2.992000000    -0.224000000
H    -1.826000000     2.055000000    -1.701000000
C     0.548000000     1.031000000    -0.594000000
H     0.836000000     1.944000000    -1.108000000
C     1.460000000     0.013000000    -0.331000000
H     2.502000000    -0.001000000    -0.641000000
C     1.014000000    -1.130000000     0.328000000
C     1.982000000    -2.199000000     0.671000000
O     3.169000000    -2.163000000     0.361000000
O     1.516000000    -3.278000000     1.040000000
