17
-91.88308
C    -0.426000000    -1.313000000     0.736000000
H    -0.872000000    -2.198000000     1.182000000
C    -1.264000000    -0.328000000     0.158000000
H    -2.313000000    -0.610000000     0.119000000
C    -0.800000000     0.886000000    -0.390000000
C    -1.718000000     1.846000000    -1.141000000
H    -2.734000000     1.492000000    -1.329000000
H    -1.739000000     2.911000000    -0.903000000
H    -1.272000000     1.900000000    -2.136000000
C     0.573000000     1.062000000    -0.492000000
H     0.961000000     1.985000000    -0.915000000
C     1.409000000     0.086000000     0.096000000
H     2.473000000     0.291000000     0.012000000
C     0.983000000    -1.087000000     0.722000000
C     2.000000000    -2.045000000     1.290000000
O     3.108000000    -1.692000000     1.394000000
O     1.638000000    -3.192000000     1.593000000
