17
-90.90552
C    -0.598000000    -1.339000000     0.473000000
H    -1.143000000    -2.230000000     0.774000000
C    -1.324000000    -0.293000000    -0.178000000
H    -2.404000000    -0.323000000    -0.294000000
C    -0.688000000     0.897000000    -0.467000000
C    -1.432000000     2.075000000    -1.078000000
H    -1.918000000     1.752000000    -2.000000000
H    -2.167000000     2.517000000    -0.402000000
H    -0.665000000     2.779000000    -1.409000000
C     0.671000000     1.064000000    -0.305000000
H     1.301000000     1.908000000    -0.574000000
C     1.361000000     0.061000000     0.330000000
H     2.434000000     0.123000000     0.494000000
C     0.791000000    -1.200000000     0.651000000
C     1.663000000    -2.293000000     1.218000000
O     2.885000000    -2.138000000     1.274000000
O     1.241000000    -3.358000000     1.485000000
