17
-95.21056
C    -1.114000000    -0.641000000     0.603000000
H    -1.989000000    -1.225000000     0.876000000
C    -1.199000000     0.098000000    -0.540000000
H    -2.173000000     0.177000000    -1.016000000
C    -0.040000000     0.783000000    -0.917000000
C    -0.071000000     1.679000000    -2.177000000
H    -0.671000000     1.333000000    -3.021000000
H    -0.608000000     2.566000000    -1.835000000
H     0.953000000     2.000000000    -2.380000000
C     1.181000000     0.459000000    -0.347000000
H     2.055000000     0.821000000    -0.883000000
C     1.221000000    -0.399000000     0.760000000
H     2.173000000    -0.707000000     1.184000000
C     0.061000000    -0.907000000     1.295000000
C     0.051000000    -1.804000000     2.490000000
O     1.110000000    -1.816000000     3.099000000
O    -0.937000000    -2.423000000     2.814000000
