17
-98.26119
C    -0.784000000    -1.079000000     0.577000000
H    -1.354000000    -1.945000000     0.901000000
C    -1.207000000    -0.212000000    -0.446000000
H    -2.052000000    -0.494000000    -1.069000000
C    -0.420000000     0.840000000    -0.855000000
C    -0.824000000     1.688000000    -2.044000000
H    -1.905000000     1.839000000    -2.052000000
H    -0.311000000     2.646000000    -2.154000000
H    -0.625000000     1.079000000    -2.928000000
C     0.794000000     1.046000000    -0.166000000
H     1.387000000     1.902000000    -0.478000000
C     1.253000000     0.159000000     0.823000000
H     2.102000000     0.244000000     1.497000000
C     0.457000000    -0.931000000     1.217000000
C     0.981000000    -1.980000000     2.213000000
O     2.134000000    -1.792000000     2.577000000
O     0.380000000    -3.007000000     2.394000000
