17
-97.13766
C    -0.700000000    -0.851000000     0.972000000
H    -1.337000000    -1.493000000     1.575000000
C    -0.728000000    -0.988000000    -0.401000000
H    -1.189000000    -1.873000000    -0.832000000
C    -0.046000000    -0.127000000    -1.191000000
C    -0.006000000    -0.364000000    -2.645000000
H    -0.771000000    -1.083000000    -2.946000000
H    -0.071000000     0.565000000    -3.215000000
H     0.923000000    -0.803000000    -3.016000000
C     0.705000000     0.917000000    -0.684000000
H     1.340000000     1.582000000    -1.264000000
C     0.700000000     1.148000000     0.701000000
H     1.257000000     1.962000000     1.158000000
C     0.021000000     0.216000000     1.501000000
C    -0.037000000     0.410000000     3.020000000
O     0.858000000     0.958000000     3.626000000
O    -0.916000000    -0.182000000     3.636000000
