17
-90.57894
C    -0.155000000    -1.454000000    -0.167000000
H    -0.117000000    -2.540000000    -0.154000000
C     1.068000000    -0.804000000    -0.324000000
H     2.029000000    -1.302000000    -0.426000000
C     0.995000000     0.586000000    -0.214000000
C     2.251000000     1.427000000    -0.466000000
H     2.908000000     0.829000000    -1.101000000
H     2.039000000     2.372000000    -0.971000000
H     2.771000000     1.518000000     0.490000000
C    -0.175000000     1.275000000     0.041000000
H    -0.187000000     2.358000000     0.131000000
C    -1.353000000     0.581000000     0.203000000
H    -2.254000000     1.124000000     0.476000000
C    -1.311000000    -0.760000000     0.176000000
C    -2.542000000    -1.534000000     0.623000000
O    -3.504000000    -0.954000000     0.991000000
O    -2.461000000    -2.720000000     0.686000000
