17
-92.20324
C    -0.747000000    -1.188000000     0.463000000
H    -1.336000000    -2.079000000     0.664000000
C    -0.931000000    -0.563000000    -0.727000000
H    -1.706000000    -0.967000000    -1.374000000
C    -0.202000000     0.581000000    -1.119000000
C    -0.406000000     1.297000000    -2.436000000
H     0.118000000     2.248000000    -2.318000000
H     0.206000000     0.704000000    -3.119000000
H    -1.467000000     1.330000000    -2.694000000
C     0.754000000     1.042000000    -0.250000000
H     1.350000000     1.939000000    -0.401000000
C     0.977000000     0.459000000     0.995000000
H     1.584000000     0.895000000     1.784000000
C     0.229000000    -0.739000000     1.388000000
C     0.501000000    -1.473000000     2.661000000
O     0.923000000    -0.844000000     3.618000000
O     0.147000000    -2.642000000     2.868000000
