17
-93.85331
C    -0.875000000    -1.097000000     0.363000000
H    -1.521000000    -1.966000000     0.454000000
C    -0.597000000    -0.655000000    -0.916000000
H    -0.938000000    -1.242000000    -1.766000000
C     0.131000000     0.474000000    -1.170000000
C     0.580000000     0.770000000    -2.561000000
H    -0.173000000     0.244000000    -3.151000000
H     0.562000000     1.826000000    -2.839000000
H     1.568000000     0.346000000    -2.755000000
C     0.668000000     1.136000000    -0.078000000
H     1.346000000     1.969000000    -0.240000000
C     0.505000000     0.634000000     1.251000000
H     0.984000000     1.126000000     2.093000000
C    -0.354000000    -0.463000000     1.437000000
C    -0.574000000    -0.893000000     2.911000000
O    -0.018000000    -0.356000000     3.838000000
O    -1.286000000    -1.851000000     3.127000000
