17
-94.00607
C    -0.710000000    -0.357000000     1.287000000
H    -1.258000000    -0.680000000     2.168000000
C    -0.641000000    -1.164000000     0.127000000
H    -1.282000000    -2.035000000     0.013000000
C     0.055000000    -0.714000000    -1.026000000
C     0.022000000    -1.476000000    -2.265000000
H    -0.973000000    -1.928000000    -2.282000000
H     0.208000000    -0.829000000    -3.124000000
H     0.757000000    -2.283000000    -2.238000000
C     0.695000000     0.561000000    -1.027000000
H     1.138000000     0.879000000    -1.968000000
C     0.641000000     1.333000000     0.141000000
H     1.234000000     2.239000000     0.237000000
C     0.007000000     0.874000000     1.284000000
C    -0.012000000     1.713000000     2.551000000
O     1.006000000     2.299000000     2.775000000
O    -0.886000000     1.561000000     3.349000000
