17
-96.79022
C    -0.973000000    -0.594000000     1.015000000
H    -1.727000000    -1.062000000     1.643000000
C    -0.869000000    -0.916000000    -0.371000000
H    -1.434000000    -1.746000000    -0.787000000
C     0.025000000    -0.304000000    -1.202000000
C     0.193000000    -0.843000000    -2.651000000
H     1.206000000    -1.073000000    -2.987000000
H    -0.460000000    -1.716000000    -2.717000000
H    -0.209000000    -0.042000000    -3.275000000
C     0.807000000     0.749000000    -0.710000000
H     1.441000000     1.288000000    -1.409000000
C     0.761000000     1.136000000     0.642000000
H     1.444000000     1.900000000     1.006000000
C    -0.112000000     0.460000000     1.531000000
C    -0.016000000     0.813000000     3.015000000
O     0.544000000     1.835000000     3.415000000
O    -0.624000000     0.113000000     3.841000000
