17
-95.31594
C    -0.956000000    -0.600000000     0.952000000
H    -1.480000000    -1.196000000     1.695000000
C    -0.447000000    -1.211000000    -0.223000000
H    -0.833000000    -2.203000000    -0.444000000
C     0.473000000    -0.531000000    -1.015000000
C     0.951000000    -1.240000000    -2.236000000
H     1.449000000    -2.128000000    -1.840000000
H     0.027000000    -1.379000000    -2.801000000
H     1.582000000    -0.609000000    -2.866000000
C     0.842000000     0.718000000    -0.702000000
H     1.533000000     1.234000000    -1.364000000
C     0.302000000     1.404000000     0.401000000
H     0.551000000     2.458000000     0.494000000
C    -0.552000000     0.744000000     1.293000000
C    -1.011000000     1.351000000     2.558000000
O    -0.500000000     2.382000000     2.921000000
O    -1.938000000     0.800000000     3.170000000
