17
-90.97535
C    -0.750000000    -0.980000000     0.779000000
H    -1.394000000    -1.716000000     1.254000000
C    -0.611000000    -0.907000000    -0.594000000
H    -1.116000000    -1.728000000    -1.096000000
C     0.180000000     0.072000000    -1.262000000
C     0.172000000     0.051000000    -2.833000000
H    -0.733000000     0.606000000    -3.091000000
H     1.081000000     0.503000000    -3.236000000
H     0.169000000    -0.941000000    -3.289000000
C     0.881000000     0.974000000    -0.472000000
H     1.428000000     1.823000000    -0.874000000
C     0.668000000     0.959000000     1.010000000
H     1.155000000     1.687000000     1.654000000
C    -0.198000000     0.023000000     1.594000000
C    -0.295000000    -0.098000000     3.101000000
O     0.344000000     0.637000000     3.819000000
O    -0.981000000    -0.969000000     3.537000000
