17
-92.98335
C     0.891000000    -1.183000000    -0.067000000
H     1.566000000    -2.025000000    -0.201000000
C     0.985000000    -0.083000000    -0.876000000
H     1.753000000    -0.159000000    -1.641000000
C     0.080000000     0.961000000    -0.733000000
C     0.139000000     2.114000000    -1.609000000
H     1.109000000     2.120000000    -2.112000000
H    -0.634000000     2.076000000    -2.379000000
H    -0.005000000     3.063000000    -1.088000000
C    -0.969000000     0.849000000     0.174000000
H    -1.725000000     1.628000000     0.133000000
C    -0.967000000    -0.130000000     1.058000000
H    -1.621000000    -0.114000000     1.926000000
C    -0.100000000    -1.211000000     0.945000000
C    -0.171000000    -2.352000000     1.921000000
O    -1.204000000    -2.604000000     2.451000000
O     0.875000000    -2.948000000     2.094000000
