17
-94.51041
C    -0.107000000    -0.415000000     1.417000000
H    -0.210000000    -0.924000000     2.372000000
C    -0.401000000    -1.232000000     0.320000000
H    -0.571000000    -2.279000000     0.555000000
C    -0.299000000    -0.706000000    -0.952000000
C    -0.206000000    -1.581000000    -2.205000000
H    -0.920000000    -2.407000000    -2.192000000
H    -0.614000000    -1.061000000    -3.075000000
H     0.775000000    -1.846000000    -2.605000000
C    -0.020000000     0.653000000    -1.101000000
H     0.026000000     1.027000000    -2.121000000
C     0.159000000     1.489000000     0.001000000
H     0.148000000     2.569000000    -0.125000000
C     0.278000000     0.925000000     1.282000000
C     0.566000000     1.706000000     2.495000000
O     0.929000000     2.879000000     2.341000000
O     0.464000000     1.199000000     3.597000000
