17
-97.19818
C     1.092000000    -0.641000000     0.594000000
H     1.827000000    -1.282000000     1.074000000
C     0.486000000    -1.074000000    -0.515000000
H     0.818000000    -2.039000000    -0.890000000
C    -0.631000000    -0.362000000    -1.036000000
C    -1.425000000    -0.898000000    -2.154000000
H    -0.870000000    -1.451000000    -2.915000000
H    -2.145000000    -1.638000000    -1.799000000
H    -2.019000000    -0.119000000    -2.636000000
C    -1.010000000     0.861000000    -0.424000000
H    -1.849000000     1.433000000    -0.812000000
C    -0.214000000     1.313000000     0.637000000
H    -0.414000000     2.301000000     1.042000000
C     0.837000000     0.586000000     1.242000000
C     1.631000000     0.926000000     2.501000000
O     1.300000000     1.857000000     3.241000000
O     2.589000000     0.223000000     2.843000000
