17
-85.94826
C    -0.563000000    -0.746000000     1.217000000
H    -0.852000000    -1.329000000     2.087000000
C    -0.971000000    -0.959000000    -0.114000000
H    -1.620000000    -1.808000000    -0.313000000
C    -0.452000000    -0.209000000    -1.150000000
C    -0.819000000    -0.440000000    -2.583000000
H    -0.094000000    -1.096000000    -3.070000000
H    -1.827000000    -0.860000000    -2.564000000
H    -0.861000000     0.517000000    -3.107000000
C     0.504000000     0.772000000    -0.842000000
H     0.901000000     1.348000000    -1.673000000
C     0.905000000     1.099000000     0.414000000
H     1.697000000     1.821000000     0.594000000
C     0.356000000     0.341000000     1.480000000
C     1.017000000     0.487000000     2.867000000
O     1.443000000     1.528000000     3.257000000
O     1.239000000    -0.471000000     3.499000000
