17
-80.94377
C     0.235000000    -0.976000000     1.115000000
H     0.446000000    -1.766000000     1.831000000
C     0.597000000    -1.169000000    -0.271000000
H     1.048000000    -2.111000000    -0.574000000
C     0.364000000    -0.133000000    -1.244000000
C     0.782000000    -0.233000000    -2.667000000
H    -0.079000000    -0.748000000    -3.097000000
H     0.986000000     0.767000000    -3.055000000
H     1.695000000    -0.832000000    -2.696000000
C    -0.205000000     1.053000000    -0.725000000
H    -0.258000000     1.812000000    -1.501000000
C    -0.685000000     1.200000000     0.644000000
H    -1.148000000     2.162000000     0.848000000
C    -0.405000000     0.201000000     1.565000000
C    -0.900000000     0.269000000     2.939000000
O    -1.685000000     1.129000000     3.172000000
O    -0.783000000    -0.630000000     3.716000000
