17
-84.71705
C     0.061000000    -0.370000000     1.418000000
H     0.236000000    -0.694000000     2.441000000
C     1.046000000    -0.549000000     0.462000000
H     2.019000000    -0.993000000     0.659000000
C     0.854000000    -0.200000000    -0.854000000
C     2.057000000    -0.402000000    -1.776000000
H     2.862000000    -1.023000000    -1.376000000
H     1.729000000    -0.949000000    -2.662000000
H     2.443000000     0.563000000    -2.111000000
C    -0.338000000     0.444000000    -1.193000000
H    -0.440000000     0.649000000    -2.256000000
C    -1.415000000     0.615000000    -0.268000000
H    -2.262000000     1.246000000    -0.525000000
C    -1.163000000     0.190000000     1.052000000
C    -2.269000000     0.370000000     2.063000000
O    -3.384000000     0.603000000     1.717000000
O    -2.029000000     0.492000000     3.210000000
