17
-94.91060
C    -0.166000000    -0.409000000     1.437000000
H    -0.070000000    -0.637000000     2.496000000
C     1.031000000    -0.410000000     0.722000000
H     1.918000000    -0.594000000     1.324000000
C     1.037000000    -0.050000000    -0.614000000
C     2.231000000    -0.073000000    -1.480000000
H     3.116000000    -0.264000000    -0.870000000
H     2.169000000    -0.892000000    -2.200000000
H     2.416000000     0.853000000    -2.030000000
C    -0.103000000     0.356000000    -1.265000000
H    -0.092000000     0.746000000    -2.280000000
C    -1.292000000     0.422000000    -0.537000000
H    -2.220000000     0.724000000    -1.016000000
C    -1.318000000    -0.032000000     0.796000000
C    -2.584000000     0.011000000     1.605000000
O    -3.603000000     0.329000000     1.097000000
O    -2.464000000    -0.084000000     2.819000000
