17
-91.03636
C    -0.484000000    -0.346000000     1.291000000
H    -0.701000000    -0.726000000     2.286000000
C     0.742000000    -0.737000000     0.759000000
H     1.368000000    -1.320000000     1.429000000
C     1.059000000    -0.376000000    -0.500000000
C     2.326000000    -0.865000000    -1.153000000
H     3.250000000    -0.446000000    -0.749000000
H     2.280000000    -1.956000000    -1.131000000
H     2.320000000    -0.593000000    -2.210000000
C     0.162000000     0.365000000    -1.250000000
H     0.501000000     0.726000000    -2.217000000
C    -1.007000000     0.916000000    -0.611000000
H    -1.688000000     1.533000000    -1.192000000
C    -1.327000000     0.545000000     0.669000000
C    -2.598000000     1.014000000     1.333000000
O    -3.499000000     1.478000000     0.727000000
O    -2.700000000     0.788000000     2.520000000
