17
-89.40198
C     0.174000000    -1.335000000     0.812000000
H     0.279000000    -2.333000000     1.229000000
C     0.383000000    -1.155000000    -0.558000000
H     0.702000000    -1.989000000    -1.178000000
C     0.141000000     0.079000000    -1.177000000
C     0.333000000     0.222000000    -2.678000000
H    -0.575000000     0.779000000    -2.919000000
H     1.177000000     0.864000000    -2.940000000
H     0.398000000    -0.764000000    -3.143000000
C    -0.249000000     1.161000000    -0.460000000
H    -0.288000000     2.115000000    -0.980000000
C    -0.458000000     1.100000000     0.873000000
H    -0.652000000     1.994000000     1.460000000
C    -0.231000000    -0.162000000     1.479000000
C    -0.382000000    -0.194000000     2.953000000
O    -0.581000000     0.825000000     3.613000000
O    -0.171000000    -1.203000000     3.618000000
