17
-89.47716
C     0.015000000    -0.583000000     1.307000000
H     0.230000000    -1.115000000     2.231000000
C     1.084000000    -0.600000000     0.405000000
H     1.924000000    -1.252000000     0.627000000
C     0.921000000     0.006000000    -0.786000000
C     1.892000000    -0.441000000    -1.873000000
H     2.890000000    -0.496000000    -1.433000000
H     1.618000000    -1.433000000    -2.237000000
H     1.844000000     0.225000000    -2.737000000
C    -0.169000000     0.737000000    -1.036000000
H    -0.364000000     1.244000000    -1.978000000
C    -1.241000000     0.826000000    -0.213000000
H    -2.153000000     1.317000000    -0.540000000
C    -1.122000000     0.170000000     1.086000000
C    -2.175000000     0.399000000     2.091000000
O    -2.999000000     1.309000000     1.942000000
O    -2.202000000    -0.305000000     3.142000000
