17
-94.75741
C    -0.591000000    -1.085000000     0.933000000
H    -1.000000000    -1.917000000     1.501000000
C     0.430000000    -1.226000000    -0.030000000
H     0.854000000    -2.220000000    -0.147000000
C     0.867000000    -0.207000000    -0.864000000
C     1.949000000    -0.343000000    -1.922000000
H     1.534000000    -0.904000000    -2.763000000
H     2.460000000     0.583000000    -2.190000000
H     2.635000000    -1.059000000    -1.465000000
C     0.338000000     1.057000000    -0.729000000
H     0.689000000     1.816000000    -1.424000000
C    -0.638000000     1.352000000     0.235000000
H    -1.136000000     2.302000000     0.412000000
C    -1.117000000     0.240000000     1.029000000
C    -2.197000000     0.473000000     2.150000000
O    -2.692000000     1.575000000     2.331000000
O    -2.386000000    -0.429000000     2.937000000
