17
-97.17820
C    -0.292000000    -1.311000000     0.577000000
H    -0.388000000    -2.317000000     0.977000000
C     0.964000000    -0.889000000     0.071000000
H     1.829000000    -1.547000000     0.096000000
C     1.053000000     0.321000000    -0.518000000
C     2.450000000     0.775000000    -1.028000000
H     2.387000000     1.557000000    -1.788000000
H     2.938000000     1.234000000    -0.166000000
H     3.050000000    -0.063000000    -1.390000000
C    -0.032000000     1.159000000    -0.606000000
H     0.098000000     2.170000000    -0.984000000
C    -1.220000000     0.829000000     0.011000000
H    -2.077000000     1.484000000     0.143000000
C    -1.423000000    -0.481000000     0.579000000
C    -2.732000000    -0.884000000     1.131000000
O    -3.746000000    -0.141000000     1.032000000
O    -2.851000000    -1.894000000     1.861000000
