17
-86.85192
C    -1.221000000     0.791000000     0.040000000
H    -2.172000000     1.317000000     0.078000000
C    -1.129000000    -0.488000000    -0.426000000
H    -2.017000000    -0.999000000    -0.789000000
C     0.104000000    -1.191000000    -0.469000000
C     0.216000000    -2.580000000    -0.958000000
H    -0.303000000    -2.670000000    -1.915000000
H     1.260000000    -2.888000000    -1.039000000
H    -0.119000000    -3.341000000    -0.250000000
C     1.230000000    -0.500000000     0.132000000
H     2.192000000    -0.983000000     0.278000000
C     1.140000000     0.835000000     0.554000000
H     2.016000000     1.241000000     1.053000000
C    -0.075000000     1.505000000     0.532000000
C    -0.317000000     2.884000000     0.972000000
O     0.594000000     3.639000000     1.182000000
O    -1.401000000     3.431000000     1.022000000
