17
-88.46575
C    -1.206000000    -0.924000000    -0.146000000
H    -1.986000000    -1.678000000    -0.210000000
C     0.091000000    -1.282000000     0.041000000
H     0.328000000    -2.334000000    -0.095000000
C     1.119000000    -0.386000000     0.214000000
C     2.552000000    -0.813000000     0.512000000
H     3.230000000    -0.824000000    -0.344000000
H     3.032000000    -0.311000000     1.354000000
H     2.498000000    -1.868000000     0.790000000
C     0.843000000     0.929000000     0.001000000
H     1.683000000     1.616000000    -0.066000000
C    -0.429000000     1.375000000    -0.146000000
H    -0.580000000     2.447000000    -0.240000000
C    -1.497000000     0.451000000    -0.266000000
C    -2.839000000     1.028000000    -0.476000000
O    -3.019000000     2.223000000    -0.259000000
O    -3.818000000     0.356000000    -0.660000000
