17
-92.91598
C    -0.693000000     1.058000000    -0.702000000
H    -1.273000000     1.748000000    -1.311000000
C    -1.256000000    -0.180000000    -0.343000000
H    -2.321000000    -0.332000000    -0.497000000
C    -0.454000000    -1.055000000     0.297000000
C    -1.109000000    -2.302000000     0.765000000
H    -0.900000000    -3.049000000    -0.003000000
H    -0.642000000    -2.548000000     1.722000000
H    -2.191000000    -2.165000000     0.821000000
C     0.887000000    -0.881000000     0.518000000
H     1.595000000    -1.621000000     0.882000000
C     1.398000000     0.361000000     0.239000000
H     2.453000000     0.556000000     0.414000000
C     0.655000000     1.358000000    -0.363000000
C     1.172000000     2.642000000    -0.745000000
O     2.147000000     3.055000000    -0.138000000
O     0.539000000     3.359000000    -1.553000000
