17
-96.34707
C    -0.043000000     1.370000000    -0.553000000
H    -0.068000000     2.341000000    -1.040000000
C    -1.012000000     0.387000000    -0.755000000
H    -1.928000000     0.554000000    -1.316000000
C    -0.840000000    -0.877000000    -0.200000000
C    -1.827000000    -1.978000000    -0.613000000
H    -1.652000000    -2.372000000    -1.616000000
H    -1.620000000    -2.816000000     0.057000000
H    -2.854000000    -1.619000000    -0.527000000
C     0.263000000    -1.114000000     0.599000000
H     0.400000000    -2.083000000     1.072000000
C     1.218000000    -0.086000000     0.842000000
H     2.105000000    -0.361000000     1.409000000
C     1.014000000     1.182000000     0.317000000
C     2.030000000     2.180000000     0.641000000
O     2.922000000     1.993000000     1.491000000
O     1.895000000     3.305000000     0.196000000
