17
-91.23827
C    -0.612000000     0.899000000    -1.004000000
H    -1.134000000     1.575000000    -1.676000000
C    -1.155000000    -0.295000000    -0.636000000
H    -2.095000000    -0.612000000    -1.081000000
C    -0.423000000    -1.153000000     0.242000000
C    -0.956000000    -2.494000000     0.673000000
H    -2.042000000    -2.378000000     0.683000000
H    -0.448000000    -3.328000000     0.184000000
H    -0.664000000    -2.622000000     1.717000000
C     0.785000000    -0.716000000     0.747000000
H     1.366000000    -1.400000000     1.359000000
C     1.302000000     0.568000000     0.455000000
H     2.192000000     0.889000000     0.991000000
C     0.557000000     1.443000000    -0.422000000
C     0.988000000     2.853000000    -0.677000000
O     1.781000000     3.328000000     0.067000000
O     0.551000000     3.438000000    -1.618000000
