17
-91.28899
C    -0.421000000    -1.361000000     0.442000000
H    -0.720000000    -2.363000000     0.739000000
C     0.889000000    -0.980000000     0.224000000
H     1.684000000    -1.718000000     0.301000000
C     1.193000000     0.363000000    -0.113000000
C     2.607000000     0.679000000    -0.512000000
H     2.559000000     1.137000000    -1.502000000
H     2.987000000     1.394000000     0.221000000
H     3.291000000    -0.171000000    -0.479000000
C     0.121000000     1.244000000    -0.255000000
H     0.364000000     2.274000000    -0.505000000
C    -1.159000000     0.922000000    -0.027000000
H    -2.000000000     1.611000000    -0.035000000
C    -1.486000000    -0.422000000     0.269000000
C    -2.905000000    -0.787000000     0.363000000
O    -3.749000000    -0.058000000    -0.089000000
O    -3.251000000    -1.761000000     0.960000000
