17
-95.98036
C    -0.242000000     1.252000000    -0.738000000
H    -0.474000000     2.108000000    -1.367000000
C    -0.730000000    -0.048000000    -1.042000000
H    -1.376000000    -0.215000000    -1.901000000
C    -0.379000000    -1.143000000    -0.301000000
C    -1.015000000    -2.424000000    -0.667000000
H    -0.562000000    -3.269000000    -0.145000000
H    -2.058000000    -2.194000000    -0.439000000
H    -0.899000000    -2.574000000    -1.743000000
C     0.559000000    -1.007000000     0.690000000
H     0.854000000    -1.899000000     1.235000000
C     1.028000000     0.255000000     1.049000000
H     1.629000000     0.295000000     1.954000000
C     0.580000000     1.453000000     0.361000000
C     0.895000000     2.797000000     0.883000000
O     1.553000000     2.793000000     1.921000000
O     0.629000000     3.813000000     0.243000000
