17
-96.21399
C    -0.194000000     1.404000000    -0.350000000
H    -0.455000000     2.449000000    -0.499000000
C    -1.112000000     0.402000000    -0.648000000
H    -2.013000000     0.570000000    -1.233000000
C    -0.770000000    -0.903000000    -0.338000000
C    -1.795000000    -1.975000000    -0.384000000
H    -2.274000000    -2.000000000     0.596000000
H    -2.516000000    -1.845000000    -1.194000000
H    -1.311000000    -2.926000000    -0.616000000
C     0.461000000    -1.224000000     0.238000000
H     0.742000000    -2.256000000     0.432000000
C     1.360000000    -0.194000000     0.566000000
H     2.357000000    -0.449000000     0.917000000
C     1.030000000     1.120000000     0.334000000
C     1.942000000     2.275000000     0.617000000
O     3.008000000     2.131000000     1.139000000
O     1.542000000     3.419000000     0.425000000
