17
-99.46650
C    -1.162000000     0.909000000     0.109000000
H    -2.049000000     1.508000000    -0.078000000
C    -1.259000000    -0.468000000    -0.022000000
H    -2.215000000    -0.982000000    -0.085000000
C    -0.079000000    -1.246000000    -0.029000000
C    -0.074000000    -2.770000000    -0.290000000
H    -1.087000000    -3.171000000    -0.369000000
H     0.522000000    -2.956000000    -1.186000000
H     0.433000000    -3.265000000     0.540000000
C     1.147000000    -0.578000000     0.069000000
H     2.084000000    -1.119000000    -0.039000000
C     1.176000000     0.786000000     0.192000000
H     2.148000000     1.250000000     0.334000000
C     0.020000000     1.610000000     0.184000000
C     0.106000000     3.111000000     0.224000000
O     1.122000000     3.567000000    -0.223000000
O    -0.827000000     3.809000000     0.672000000
