17
-95.70906
C    -1.055000000     0.949000000    -0.364000000
H    -1.788000000     1.656000000    -0.744000000
C    -1.224000000    -0.432000000    -0.417000000
H    -2.139000000    -0.887000000    -0.788000000
C    -0.134000000    -1.221000000    -0.016000000
C    -0.241000000    -2.712000000    -0.073000000
H    -0.602000000    -3.086000000    -1.034000000
H     0.676000000    -3.262000000     0.151000000
H    -1.020000000    -2.894000000     0.670000000
C     1.045000000    -0.653000000     0.369000000
H     1.833000000    -1.318000000     0.714000000
C     1.281000000     0.744000000     0.307000000
H     2.205000000     1.190000000     0.667000000
C     0.165000000     1.544000000     0.074000000
C     0.285000000     3.074000000     0.137000000
O     1.359000000     3.575000000     0.477000000
O    -0.647000000     3.737000000    -0.127000000
