17
-84.44205
C    -1.177000000     0.945000000    -0.101000000
H    -2.025000000     1.588000000    -0.320000000
C    -1.268000000    -0.473000000    -0.294000000
H    -2.201000000    -1.014000000    -0.438000000
C    -0.154000000    -1.279000000    -0.084000000
C    -0.072000000    -2.725000000    -0.339000000
H    -0.055000000    -3.179000000     0.654000000
H    -0.939000000    -3.008000000    -0.940000000
H     0.880000000    -2.939000000    -0.830000000
C     1.087000000    -0.635000000     0.285000000
H     2.008000000    -1.211000000     0.340000000
C     1.131000000     0.799000000     0.476000000
H     2.146000000     1.146000000     0.648000000
C    -0.007000000     1.603000000     0.276000000
C     0.112000000     3.073000000     0.294000000
O     1.094000000     3.583000000     0.794000000
O    -0.564000000     3.722000000    -0.421000000
