17
-93.83990
C    -0.240000000     1.315000000    -0.700000000
H    -0.597000000     2.170000000    -1.269000000
C    -1.076000000     0.642000000     0.180000000
H    -2.090000000     0.985000000     0.369000000
C    -0.725000000    -0.563000000     0.798000000
C    -1.618000000    -1.252000000     1.844000000
H    -0.975000000    -1.513000000     2.686000000
H    -2.453000000    -0.621000000     2.157000000
H    -2.071000000    -2.158000000     1.436000000
C     0.441000000    -1.150000000     0.431000000
H     0.634000000    -2.042000000     1.022000000
C     1.284000000    -0.559000000    -0.549000000
H     2.201000000    -1.069000000    -0.835000000
C     0.922000000     0.727000000    -1.089000000
C     1.914000000     1.503000000    -1.905000000
O     2.880000000     0.942000000    -2.326000000
O     1.561000000     2.651000000    -2.257000000
