17
-95.14530
C    -0.553000000     1.139000000    -0.684000000
H    -1.086000000     2.058000000    -0.913000000
C    -1.281000000     0.188000000     0.012000000
H    -2.365000000     0.259000000     0.004000000
C    -0.615000000    -0.879000000     0.631000000
C    -1.434000000    -1.905000000     1.314000000
H    -2.390000000    -1.512000000     1.665000000
H    -1.623000000    -2.648000000     0.536000000
H    -0.921000000    -2.289000000     2.198000000
C     0.781000000    -0.945000000     0.519000000
H     1.335000000    -1.693000000     1.081000000
C     1.449000000    -0.017000000    -0.244000000
H     2.505000000    -0.140000000    -0.467000000
C     0.826000000     1.086000000    -0.759000000
C     1.574000000     2.185000000    -1.445000000
O     2.783000000     2.182000000    -1.270000000
O     1.018000000     2.926000000    -2.180000000
