17
-77.80679
C    -0.964000000     1.181000000     0.055000000
H    -1.729000000     1.940000000     0.201000000
C    -1.119000000    -0.028000000     0.615000000
H    -2.034000000    -0.305000000     1.133000000
C    -0.251000000    -1.065000000     0.476000000
C    -0.420000000    -2.397000000     1.148000000
H     0.041000000    -2.341000000     2.137000000
H    -1.455000000    -2.588000000     1.439000000
H    -0.041000000    -3.231000000     0.554000000
C     0.847000000    -0.920000000    -0.325000000
H     1.510000000    -1.749000000    -0.559000000
C     1.183000000     0.374000000    -0.762000000
H     2.068000000     0.504000000    -1.378000000
C     0.309000000     1.410000000    -0.573000000
C     0.637000000     2.717000000    -1.182000000
O     1.199000000     2.788000000    -2.236000000
O     0.218000000     3.714000000    -0.750000000
