17
-98.16436
C    -0.937000000     0.986000000    -0.368000000
H    -1.725000000     1.722000000    -0.506000000
C    -1.251000000    -0.218000000     0.230000000
H    -2.249000000    -0.506000000     0.551000000
C    -0.233000000    -1.124000000     0.479000000
C    -0.549000000    -2.455000000     1.158000000
H    -0.493000000    -3.329000000     0.504000000
H     0.113000000    -2.579000000     2.017000000
H    -1.556000000    -2.463000000     1.580000000
C     1.051000000    -0.768000000     0.152000000
H     1.864000000    -1.471000000     0.312000000
C     1.398000000     0.467000000    -0.523000000
H     2.417000000     0.834000000    -0.615000000
C     0.334000000     1.325000000    -0.805000000
C     0.539000000     2.801000000    -1.267000000
O     1.661000000     3.169000000    -1.636000000
O    -0.384000000     3.607000000    -1.270000000
