17
-91.83541
C     0.035000000     1.446000000     0.135000000
H     0.243000000     2.500000000     0.300000000
C     0.188000000     0.574000000     1.224000000
H     0.450000000     1.080000000     2.150000000
C     0.111000000    -0.803000000     0.996000000
C     0.342000000    -1.849000000     2.033000000
H    -0.400000000    -2.648000000     1.959000000
H     1.302000000    -2.318000000     1.806000000
H     0.240000000    -1.392000000     3.019000000
C    -0.164000000    -1.184000000    -0.307000000
H    -0.314000000    -2.244000000    -0.490000000
C    -0.333000000    -0.310000000    -1.353000000
H    -0.675000000    -0.700000000    -2.308000000
C    -0.206000000     1.044000000    -1.188000000
C    -0.371000000     1.976000000    -2.364000000
O     0.048000000     1.677000000    -3.505000000
O    -0.502000000     3.155000000    -2.112000000
