17
-94.60721
C    -0.136000000     1.456000000    -0.086000000
H    -0.100000000     2.542000000    -0.111000000
C     0.960000000     0.795000000     0.510000000
H     1.835000000     1.341000000     0.853000000
C     0.947000000    -0.568000000     0.462000000
C     2.071000000    -1.308000000     1.126000000
H     2.140000000    -2.301000000     0.676000000
H     2.970000000    -0.835000000     0.727000000
H     2.086000000    -1.251000000     2.217000000
C    -0.100000000    -1.337000000    -0.037000000
H    -0.104000000    -2.424000000    -0.061000000
C    -1.240000000    -0.676000000    -0.441000000
H    -2.163000000    -1.199000000    -0.674000000
C    -1.229000000     0.737000000    -0.592000000
C    -2.389000000     1.485000000    -1.304000000
O    -3.315000000     0.868000000    -1.696000000
O    -2.239000000     2.677000000    -1.561000000
