17
-89.75644
C     1.233000000     0.674000000    -0.653000000
H     2.086000000     1.059000000    -1.206000000
C     0.712000000    -0.645000000    -0.920000000
H     1.101000000    -1.262000000    -1.726000000
C    -0.447000000    -1.107000000    -0.259000000
C    -1.136000000    -2.391000000    -0.694000000
H    -0.540000000    -3.267000000    -0.428000000
H    -2.116000000    -2.514000000    -0.229000000
H    -1.266000000    -2.327000000    -1.777000000
C    -1.024000000    -0.335000000     0.668000000
H    -1.898000000    -0.642000000     1.237000000
C    -0.538000000     0.888000000     0.990000000
H    -1.070000000     1.324000000     1.832000000
C     0.574000000     1.443000000     0.323000000
C     1.203000000     2.751000000     0.747000000
O     0.864000000     3.180000000     1.830000000
O     2.263000000     3.178000000     0.267000000
