17
-97.54077
C     0.496000000     1.195000000    -0.666000000
H     0.829000000     1.952000000    -1.372000000
C     0.998000000    -0.120000000    -0.870000000
H     1.781000000    -0.198000000    -1.619000000
C     0.434000000    -1.162000000    -0.186000000
C     0.865000000    -2.568000000    -0.468000000
H     1.760000000    -2.606000000    -1.093000000
H     0.987000000    -3.057000000     0.501000000
H     0.000000000    -2.972000000    -0.997000000
C    -0.552000000    -0.919000000     0.788000000
H    -0.876000000    -1.720000000     1.447000000
C    -0.979000000     0.389000000     0.935000000
H    -1.712000000     0.552000000     1.721000000
C    -0.529000000     1.462000000     0.209000000
C    -1.078000000     2.855000000     0.456000000
O    -1.768000000     3.156000000     1.472000000
O    -0.659000000     3.756000000    -0.260000000
