17
-86.25518
C     0.696000000     1.036000000    -0.821000000
H     1.359000000     1.745000000    -1.310000000
C     0.288000000    -0.227000000    -1.312000000
H     0.361000000    -0.456000000    -2.372000000
C    -0.387000000    -1.104000000    -0.449000000
C    -0.726000000    -2.489000000    -0.954000000
H    -0.481000000    -2.651000000    -2.005000000
H    -0.168000000    -3.139000000    -0.277000000
H    -1.789000000    -2.705000000    -0.824000000
C    -0.742000000    -0.658000000     0.823000000
H    -1.278000000    -1.343000000     1.475000000
C    -0.203000000     0.540000000     1.346000000
H    -0.452000000     0.774000000     2.378000000
C     0.536000000     1.393000000     0.528000000
C     0.849000000     2.753000000     1.072000000
O     0.478000000     3.107000000     2.165000000
O     1.660000000     3.421000000     0.541000000
