17
-94.76213
C     0.845000000     0.968000000    -0.702000000
H     1.618000000     1.605000000    -1.125000000
C     0.934000000    -0.428000000    -0.811000000
H     1.698000000    -0.784000000    -1.498000000
C     0.117000000    -1.224000000    -0.064000000
C     0.250000000    -2.725000000    -0.140000000
H     0.177000000    -3.084000000     0.889000000
H    -0.584000000    -3.229000000    -0.634000000
H     1.237000000    -2.978000000    -0.531000000
C    -0.965000000    -0.729000000     0.658000000
H    -1.754000000    -1.305000000     1.134000000
C    -1.076000000     0.713000000     0.744000000
H    -1.846000000     1.127000000     1.390000000
C    -0.167000000     1.539000000     0.072000000
C    -0.209000000     3.101000000     0.139000000
O    -0.900000000     3.668000000     0.942000000
O     0.633000000     3.759000000    -0.467000000
