17
-96.03314
C     0.715000000     1.148000000    -0.665000000
H     1.352000000     1.901000000    -1.121000000
C     1.238000000    -0.031000000    -0.245000000
H     2.282000000    -0.298000000    -0.391000000
C     0.487000000    -1.061000000     0.208000000
C     1.074000000    -2.440000000     0.457000000
H     0.479000000    -3.291000000     0.119000000
H     2.120000000    -2.434000000     0.144000000
H     1.195000000    -2.475000000     1.542000000
C    -0.824000000    -0.879000000     0.516000000
H    -1.450000000    -1.704000000     0.846000000
C    -1.417000000     0.370000000     0.254000000
H    -2.469000000     0.520000000     0.485000000
C    -0.644000000     1.385000000    -0.338000000
C    -1.220000000     2.747000000    -0.573000000
O    -2.440000000     2.807000000    -0.574000000
O    -0.478000000     3.743000000    -0.666000000
