17
-103.83774
C     0.808000000     0.096000000    -1.231000000
H     1.350000000    -0.061000000    -2.160000000
C     0.194000000    -1.093000000    -0.751000000
H     0.234000000    -2.001000000    -1.348000000
C    -0.622000000    -0.990000000     0.389000000
C    -1.364000000    -2.177000000     0.865000000
H    -2.218000000    -2.469000000     0.249000000
H    -0.715000000    -3.053000000     0.929000000
H    -1.720000000    -1.963000000     1.874000000
C    -0.602000000     0.179000000     1.140000000
H    -1.190000000     0.227000000     2.053000000
C     0.078000000     1.297000000     0.746000000
H     0.095000000     2.193000000     1.360000000
C     0.763000000     1.294000000    -0.471000000
C     1.451000000     2.547000000    -1.088000000
O     1.280000000     3.635000000    -0.485000000
O     2.184000000     2.338000000    -2.066000000
