17
-97.81041
C     0.933000000     0.927000000    -0.623000000
H     1.700000000     1.493000000    -1.145000000
C    -0.043000000     0.205000000    -1.273000000
H    -0.024000000     0.250000000    -2.359000000
C    -0.916000000    -0.674000000    -0.590000000
C    -1.785000000    -1.558000000    -1.445000000
H    -2.609000000    -1.008000000    -1.905000000
H    -1.166000000    -1.755000000    -2.323000000
H    -2.091000000    -2.420000000    -0.848000000
C    -0.854000000    -0.648000000     0.806000000
H    -1.498000000    -1.301000000     1.390000000
C     0.092000000     0.026000000     1.500000000
H     0.180000000    -0.006000000     2.583000000
C     1.066000000     0.795000000     0.805000000
C     2.082000000     1.640000000     1.606000000
O     2.150000000     1.540000000     2.828000000
O     2.775000000     2.497000000     0.991000000
