17
-81.92714
C     0.541000000    -0.218000000    -1.390000000
H     0.898000000    -0.494000000    -2.379000000
C     0.133000000    -1.256000000    -0.524000000
H     0.267000000    -2.293000000    -0.824000000
C    -0.375000000    -0.910000000     0.728000000
C    -0.916000000    -1.960000000     1.555000000
H    -0.561000000    -1.985000000     2.587000000
H    -1.988000000    -1.785000000     1.670000000
H    -0.636000000    -2.965000000     1.233000000
C    -0.537000000     0.416000000     1.067000000
H    -1.048000000     0.710000000     1.980000000
C    -0.105000000     1.445000000     0.289000000
H    -0.153000000     2.479000000     0.623000000
C     0.536000000     1.151000000    -0.900000000
C     1.224000000     2.241000000    -1.660000000
O     1.077000000     3.367000000    -1.313000000
O     1.649000000     2.055000000    -2.749000000
