17
-92.05981
C     1.049000000     0.850000000    -0.549000000
H     1.783000000     1.527000000    -0.979000000
C     0.076000000     0.247000000    -1.343000000
H     0.093000000     0.471000000    -2.406000000
C    -0.896000000    -0.519000000    -0.682000000
C    -1.889000000    -1.240000000    -1.464000000
H    -2.406000000    -0.515000000    -2.097000000
H    -1.287000000    -1.930000000    -2.058000000
H    -2.697000000    -1.676000000    -0.873000000
C    -0.851000000    -0.677000000     0.719000000
H    -1.566000000    -1.336000000     1.205000000
C     0.194000000    -0.221000000     1.527000000
H     0.162000000    -0.349000000     2.605000000
C     1.091000000     0.647000000     0.846000000
C     2.092000000     1.385000000     1.659000000
O     2.471000000     0.932000000     2.685000000
O     2.585000000     2.411000000     1.204000000
