17
-95.55625
C     1.207000000     0.097000000    -0.898000000
H     2.159000000     0.005000000    -1.415000000
C     0.656000000    -1.033000000    -0.283000000
H     1.054000000    -2.039000000    -0.384000000
C    -0.427000000    -0.993000000     0.574000000
C    -0.997000000    -2.195000000     1.161000000
H    -0.450000000    -3.098000000     0.882000000
H    -0.924000000    -2.236000000     2.250000000
H    -2.024000000    -2.427000000     0.871000000
C    -1.081000000     0.190000000     0.765000000
H    -1.962000000     0.146000000     1.400000000
C    -0.629000000     1.352000000     0.126000000
H    -1.119000000     2.322000000     0.144000000
C     0.604000000     1.333000000    -0.636000000
C     1.162000000     2.537000000    -1.323000000
O     0.439000000     3.491000000    -1.517000000
O     2.331000000     2.544000000    -1.709000000
