17
-97.31741
C     0.888000000     0.456000000    -1.031000000
H     1.775000000     0.630000000    -1.635000000
C     0.612000000    -0.849000000    -0.780000000
H     1.206000000    -1.647000000    -1.218000000
C    -0.369000000    -1.209000000     0.116000000
C    -0.592000000    -2.626000000     0.543000000
H    -0.935000000    -2.650000000     1.579000000
H    -1.467000000    -2.947000000    -0.027000000
H     0.306000000    -3.202000000     0.311000000
C    -0.991000000    -0.194000000     0.849000000
H    -1.814000000    -0.318000000     1.547000000
C    -0.690000000     1.147000000     0.603000000
H    -1.065000000     1.960000000     1.220000000
C     0.375000000     1.507000000    -0.281000000
C     0.795000000     2.956000000    -0.558000000
O     0.181000000     3.842000000     0.073000000
O     1.785000000     3.149000000    -1.316000000
