17
-95.82877
C     0.739000000     0.437000000    -1.212000000
H     1.155000000     0.656000000    -2.192000000
C     0.576000000    -0.906000000    -0.834000000
H     0.965000000    -1.760000000    -1.383000000
C    -0.077000000    -1.114000000     0.360000000
C    -0.257000000    -2.574000000     0.835000000
H     0.131000000    -3.271000000     0.089000000
H     0.312000000    -2.678000000     1.761000000
H    -1.290000000    -2.858000000     1.046000000
C    -0.585000000    -0.107000000     1.115000000
H    -0.975000000    -0.409000000     2.084000000
C    -0.547000000     1.220000000     0.691000000
H    -0.919000000     2.021000000     1.325000000
C     0.045000000     1.482000000    -0.509000000
C     0.189000000     2.900000000    -0.931000000
O    -0.502000000     3.782000000    -0.462000000
O     1.040000000     3.173000000    -1.786000000
