17
-96.18767
C     0.952000000     0.422000000    -1.048000000
H     1.630000000     0.676000000    -1.859000000
C     0.496000000    -0.883000000    -0.870000000
H     0.806000000    -1.720000000    -1.491000000
C    -0.432000000    -1.127000000     0.129000000
C    -1.043000000    -2.520000000     0.279000000
H    -1.068000000    -3.059000000    -0.671000000
H    -0.472000000    -3.091000000     1.014000000
H    -2.051000000    -2.521000000     0.699000000
C    -0.846000000    -0.121000000     0.986000000
H    -1.622000000    -0.300000000     1.726000000
C    -0.403000000     1.169000000     0.808000000
H    -0.772000000     1.954000000     1.464000000
C     0.517000000     1.479000000    -0.237000000
C     1.210000000     2.847000000    -0.329000000
O     0.840000000     3.801000000     0.328000000
O     2.251000000     2.999000000    -0.930000000
