17
-95.21888
C     1.116000000     0.829000000    -0.576000000
H     1.766000000     1.374000000    -1.256000000
C     0.938000000    -0.518000000    -0.751000000
H     1.668000000    -1.007000000    -1.391000000
C    -0.044000000    -1.261000000    -0.112000000
C    -0.268000000    -2.711000000    -0.367000000
H     0.058000000    -3.221000000     0.542000000
H    -1.339000000    -2.841000000    -0.532000000
H     0.284000000    -3.087000000    -1.231000000
C    -0.919000000    -0.571000000     0.718000000
H    -1.677000000    -1.152000000     1.237000000
C    -0.849000000     0.841000000     0.858000000
H    -1.468000000     1.382000000     1.568000000
C     0.237000000     1.556000000     0.250000000
C     0.141000000     3.065000000     0.306000000
O    -0.677000000     3.657000000     0.989000000
O     1.032000000     3.673000000    -0.248000000
