17
-98.04108
C     0.192000000     1.138000000     0.901000000
H     0.529000000     1.993000000     1.481000000
C     0.711000000    -0.140000000     1.117000000
H     1.404000000    -0.317000000     1.936000000
C     0.424000000    -1.106000000     0.195000000
C     0.787000000    -2.600000000     0.452000000
H     0.784000000    -3.208000000    -0.456000000
H     1.836000000    -2.602000000     0.753000000
H     0.222000000    -3.081000000     1.253000000
C    -0.357000000    -0.792000000    -0.910000000
H    -0.596000000    -1.623000000    -1.570000000
C    -0.885000000     0.440000000    -1.180000000
H    -1.568000000     0.667000000    -1.994000000
C    -0.562000000     1.417000000    -0.208000000
C    -0.869000000     2.912000000    -0.507000000
O    -1.711000000     3.088000000    -1.389000000
O    -0.348000000     3.812000000     0.128000000
