17
-89.68045
C     0.057000000    -0.989000000     1.065000000
H     0.102000000    -1.675000000     1.908000000
C     0.996000000     0.015000000     0.898000000
H     1.871000000     0.122000000     1.534000000
C     0.889000000     0.823000000    -0.231000000
C     2.025000000     1.808000000    -0.633000000
H     2.418000000     1.426000000    -1.578000000
H     1.672000000     2.839000000    -0.701000000
H     2.742000000     1.806000000     0.191000000
C    -0.322000000     0.844000000    -0.989000000
H    -0.480000000     1.600000000    -1.755000000
C    -1.316000000    -0.115000000    -0.714000000
H    -2.304000000    -0.165000000    -1.164000000
C    -1.125000000    -1.054000000     0.312000000
C    -2.148000000    -2.108000000     0.621000000
O    -3.179000000    -2.084000000    -0.004000000
O    -1.902000000    -3.087000000     1.241000000
