17
-91.38053
C     0.893000000     1.179000000    -0.112000000
H     1.649000000     1.960000000    -0.095000000
C     1.274000000    -0.165000000    -0.316000000
H     2.300000000    -0.412000000    -0.574000000
C     0.380000000    -1.177000000    -0.178000000
C     0.780000000    -2.584000000    -0.328000000
H     1.308000000    -2.852000000     0.590000000
H    -0.135000000    -3.157000000    -0.494000000
H     1.410000000    -2.911000000    -1.158000000
C    -0.982000000    -0.887000000     0.080000000
H    -1.738000000    -1.665000000     0.155000000
C    -1.392000000     0.488000000     0.247000000
H    -2.427000000     0.710000000     0.492000000
C    -0.471000000     1.536000000     0.123000000
C    -0.876000000     2.949000000     0.338000000
O    -1.930000000     3.169000000     0.920000000
O    -0.044000000     3.814000000     0.311000000
