17
-91.34970
C     1.044000000     0.889000000    -0.382000000
H     1.828000000     1.416000000    -0.919000000
C     0.982000000    -0.457000000    -0.670000000
H     1.771000000    -0.900000000    -1.272000000
C    -0.049000000    -1.226000000    -0.139000000
C    -0.040000000    -2.655000000    -0.583000000
H    -0.330000000    -2.706000000    -1.635000000
H     1.015000000    -2.901000000    -0.448000000
H    -0.665000000    -3.319000000     0.018000000
C    -1.073000000    -0.624000000     0.591000000
H    -1.949000000    -1.182000000     0.911000000
C    -1.046000000     0.766000000     0.849000000
H    -1.886000000     1.218000000     1.370000000
C     0.109000000     1.503000000     0.439000000
C     0.101000000     2.999000000     0.660000000
O    -0.906000000     3.562000000     0.901000000
O     1.093000000     3.621000000     0.306000000
