17
-85.14255
C    -0.769000000     1.169000000     0.616000000
H    -1.073000000     2.086000000     1.114000000
C     0.234000000     0.409000000     1.241000000
H     0.508000000     0.535000000     2.285000000
C     0.739000000    -0.747000000     0.639000000
C     1.699000000    -1.641000000     1.303000000
H     1.299000000    -2.351000000     2.030000000
H     2.265000000    -2.226000000     0.575000000
H     2.507000000    -1.108000000     1.808000000
C     0.422000000    -0.962000000    -0.643000000
H     0.867000000    -1.798000000    -1.178000000
C    -0.402000000    -0.093000000    -1.326000000
H    -0.517000000    -0.394000000    -2.364000000
C    -1.076000000     0.973000000    -0.739000000
C    -2.020000000     1.804000000    -1.519000000
O    -2.486000000     1.345000000    -2.511000000
O    -2.192000000     3.000000000    -1.328000000
