17
-95.98473
C    -1.138000000     0.935000000     0.444000000
H    -1.871000000     1.640000000     0.830000000
C    -0.035000000     0.534000000     1.209000000
H     0.078000000     1.138000000     2.105000000
C     0.968000000    -0.283000000     0.722000000
C     2.281000000    -0.596000000     1.433000000
H     2.065000000    -1.257000000     2.275000000
H     2.964000000    -1.107000000     0.750000000
H     2.798000000     0.286000000     1.816000000
C     0.803000000    -0.856000000    -0.531000000
H     1.627000000    -1.409000000    -0.975000000
C    -0.343000000    -0.585000000    -1.265000000
H    -0.329000000    -1.004000000    -2.268000000
C    -1.319000000     0.293000000    -0.805000000
C    -2.566000000     0.584000000    -1.697000000
O    -2.587000000     0.303000000    -2.849000000
O    -3.390000000     1.384000000    -1.199000000
