17
-102.29356
C    -0.476000000     1.376000000     0.191000000
H    -0.909000000     2.333000000     0.474000000
C     0.285000000     0.630000000     1.098000000
H     0.482000000     1.063000000     2.075000000
C     0.671000000    -0.685000000     0.789000000
C     1.461000000    -1.466000000     1.828000000
H     1.300000000    -1.121000000     2.852000000
H     1.229000000    -2.532000000     1.800000000
H     2.522000000    -1.437000000     1.571000000
C     0.340000000    -1.231000000    -0.471000000
H     0.575000000    -2.273000000    -0.673000000
C    -0.322000000    -0.416000000    -1.385000000
H    -0.693000000    -0.833000000    -2.318000000
C    -0.719000000     0.886000000    -1.066000000
C    -1.657000000     1.661000000    -1.999000000
O    -1.765000000     1.433000000    -3.228000000
O    -2.331000000     2.612000000    -1.530000000
