17
-91.92591
C    -0.870000000     0.801000000     0.861000000
H    -1.383000000     1.425000000     1.589000000
C     0.459000000     0.528000000     1.103000000
H     0.859000000     1.024000000     1.984000000
C     1.209000000    -0.122000000     0.157000000
C     2.684000000    -0.296000000     0.345000000
H     2.870000000     0.083000000     1.353000000
H     3.054000000    -1.323000000     0.364000000
H     3.317000000     0.265000000    -0.346000000
C     0.580000000    -0.788000000    -0.836000000
H     1.225000000    -1.408000000    -1.453000000
C    -0.811000000    -0.659000000    -1.039000000
H    -1.345000000    -1.063000000    -1.894000000
C    -1.609000000     0.079000000    -0.145000000
C    -3.038000000     0.366000000    -0.548000000
O    -3.427000000     0.015000000    -1.655000000
O    -3.770000000     1.073000000     0.156000000
