17
-97.52038
C    -0.204000000     0.761000000     1.259000000
H    -0.275000000     1.269000000     2.217000000
C    -0.045000000    -0.639000000     1.194000000
H     0.042000000    -1.246000000     2.091000000
C     0.033000000    -1.244000000    -0.085000000
C     0.083000000    -2.699000000    -0.140000000
H    -0.315000000    -3.108000000     0.792000000
H    -0.666000000    -2.983000000    -0.883000000
H     1.020000000    -3.176000000    -0.433000000
C     0.085000000    -0.449000000    -1.271000000
H     0.270000000    -0.839000000    -2.268000000
C     0.038000000     0.904000000    -1.128000000
H     0.016000000     1.518000000    -2.025000000
C    -0.085000000     1.537000000     0.093000000
C    -0.007000000     3.090000000     0.194000000
O    -0.162000000     3.697000000    -0.857000000
O     0.175000000     3.611000000     1.244000000
