17
-87.26707
C    -0.378000000     0.974000000     1.053000000
H    -0.480000000     1.627000000     1.917000000
C     0.801000000     0.198000000     1.023000000
H     1.609000000     0.188000000     1.750000000
C     1.014000000    -0.706000000    -0.038000000
C     2.325000000    -1.459000000    -0.081000000
H     2.919000000    -1.257000000     0.812000000
H     2.046000000    -2.506000000    -0.217000000
H     2.879000000    -1.076000000    -0.941000000
C    -0.014000000    -0.914000000    -0.977000000
H     0.163000000    -1.748000000    -1.651000000
C    -1.196000000    -0.214000000    -0.887000000
H    -2.030000000    -0.265000000    -1.583000000
C    -1.379000000     0.872000000     0.024000000
C    -2.482000000     1.779000000    -0.016000000
O    -3.312000000     1.740000000    -0.895000000
O    -2.490000000     2.771000000     0.699000000
