17
-84.82428
C     0.043000000    -1.346000000     0.531000000
H     0.135000000    -2.299000000     1.046000000
C     1.100000000    -0.505000000     0.385000000
H     2.122000000    -0.763000000     0.653000000
C     0.969000000     0.761000000    -0.121000000
C     2.176000000     1.585000000    -0.479000000
H     3.011000000     1.327000000     0.176000000
H     2.482000000     1.420000000    -1.514000000
H     1.874000000     2.615000000    -0.278000000
C    -0.279000000     1.160000000    -0.486000000
H    -0.364000000     2.152000000    -0.922000000
C    -1.397000000     0.364000000    -0.297000000
H    -2.386000000     0.759000000    -0.510000000
C    -1.266000000    -0.894000000     0.227000000
C    -2.427000000    -1.804000000     0.504000000
O    -3.567000000    -1.517000000     0.568000000
O    -2.230000000    -3.019000000     0.522000000
