17
-92.67102
C    -0.290000000     1.246000000     0.857000000
H    -0.446000000     2.123000000     1.480000000
C    -0.108000000    -0.060000000     1.332000000
H    -0.255000000    -0.220000000     2.397000000
C     0.166000000    -1.128000000     0.465000000
C     0.422000000    -2.419000000     1.018000000
H     1.332000000    -2.799000000     0.549000000
H     0.328000000    -2.640000000     2.084000000
H    -0.236000000    -3.170000000     0.576000000
C     0.271000000    -0.875000000    -0.907000000
H     0.451000000    -1.656000000    -1.641000000
C     0.133000000     0.355000000    -1.414000000
H     0.123000000     0.460000000    -2.496000000
C    -0.246000000     1.430000000    -0.571000000
C    -0.483000000     2.776000000    -1.125000000
O    -1.027000000     2.875000000    -2.210000000
O    -0.143000000     3.706000000    -0.397000000
