17
-90.32526
C    -0.029000000     0.670000000     1.324000000
H    -0.138000000     1.031000000     2.343000000
C     0.126000000    -0.696000000     1.153000000
H     0.156000000    -1.371000000     2.005000000
C     0.211000000    -1.174000000    -0.124000000
C     0.314000000    -2.632000000    -0.447000000
H     1.051000000    -2.811000000    -1.233000000
H     0.557000000    -3.231000000     0.433000000
H    -0.675000000    -3.005000000    -0.721000000
C     0.108000000    -0.323000000    -1.195000000
H     0.189000000    -0.750000000    -2.191000000
C    -0.095000000     0.981000000    -1.050000000
H    -0.136000000     1.625000000    -1.925000000
C    -0.155000000     1.499000000     0.252000000
C    -0.413000000     2.980000000     0.412000000
O    -1.254000000     3.560000000    -0.247000000
O     0.175000000     3.640000000     1.219000000
