17
-92.78994
C    -0.175000000     1.137000000     0.958000000
H    -0.639000000     1.981000000     1.462000000
C    -0.934000000    -0.046000000     0.899000000
H    -1.865000000    -0.068000000     1.460000000
C    -0.510000000    -1.141000000     0.125000000
C    -1.339000000    -2.448000000     0.027000000
H    -2.401000000    -2.199000000    -0.024000000
H    -0.933000000    -3.049000000    -0.790000000
H    -1.185000000    -2.946000000     0.986000000
C     0.591000000    -0.968000000    -0.660000000
H     0.994000000    -1.742000000    -1.309000000
C     1.247000000     0.280000000    -0.694000000
H     1.948000000     0.353000000    -1.521000000
C     0.884000000     1.386000000     0.048000000
C     1.376000000     2.796000000    -0.252000000
O     1.326000000     3.165000000    -1.397000000
O     1.609000000     3.502000000     0.690000000
