17
-95.42990
C    -0.667000000     0.952000000     0.881000000
H    -1.032000000     1.576000000     1.692000000
C    -0.382000000    -0.333000000     1.240000000
H    -0.771000000    -0.727000000     2.175000000
C     0.266000000    -1.151000000     0.328000000
C     0.402000000    -2.599000000     0.536000000
H    -0.345000000    -3.152000000    -0.038000000
H     1.416000000    -2.902000000     0.266000000
H     0.242000000    -3.054000000     1.516000000
C     0.552000000    -0.638000000    -0.949000000
H     1.075000000    -1.299000000    -1.635000000
C     0.356000000     0.678000000    -1.326000000
H     0.629000000     0.960000000    -2.340000000
C    -0.225000000     1.518000000    -0.376000000
C    -0.485000000     2.997000000    -0.599000000
O    -0.332000000     3.435000000    -1.725000000
O    -0.707000000     3.733000000     0.351000000
