17
-96.36956
C    -0.588000000     1.110000000     0.658000000
H    -1.006000000     1.782000000     1.403000000
C    -0.626000000    -0.216000000     1.127000000
H    -1.089000000    -0.431000000     2.086000000
C    -0.034000000    -1.199000000     0.320000000
C     0.003000000    -2.629000000     0.830000000
H    -0.753000000    -3.228000000     0.319000000
H     0.971000000    -3.110000000     0.675000000
H    -0.205000000    -2.683000000     1.901000000
C     0.544000000    -0.815000000    -0.857000000
H     1.040000000    -1.605000000    -1.415000000
C     0.477000000     0.530000000    -1.359000000
H     0.984000000     0.755000000    -2.294000000
C    -0.090000000     1.530000000    -0.567000000
C     0.031000000     3.014000000    -0.881000000
O     0.796000000     3.321000000    -1.766000000
O    -0.457000000     3.869000000    -0.179000000
