17
-92.81015
C    -0.710000000     1.063000000    -0.804000000
H    -1.335000000     1.812000000    -1.282000000
C    -1.273000000    -0.003000000    -0.163000000
H    -2.347000000    -0.173000000    -0.155000000
C    -0.498000000    -1.010000000     0.442000000
C    -1.120000000    -2.308000000     0.996000000
H    -0.905000000    -2.564000000     2.036000000
H    -2.185000000    -2.070000000     1.020000000
H    -0.964000000    -3.199000000     0.385000000
C     0.846000000    -0.868000000     0.515000000
H     1.476000000    -1.618000000     0.987000000
C     1.410000000     0.340000000     0.120000000
H     2.488000000     0.457000000     0.199000000
C     0.621000000     1.317000000    -0.575000000
C     1.270000000     2.590000000    -1.094000000
O     2.531000000     2.705000000    -0.994000000
O     0.692000000     3.526000000    -1.626000000
