17
-97.79146
C    -1.039000000     0.900000000    -0.553000000
H    -1.872000000     1.486000000    -0.933000000
C    -1.229000000    -0.373000000    -0.035000000
H    -2.241000000    -0.765000000    -0.085000000
C    -0.209000000    -1.128000000     0.453000000
C    -0.447000000    -2.568000000     0.873000000
H    -1.357000000    -2.681000000     1.466000000
H    -0.456000000    -3.219000000    -0.003000000
H     0.387000000    -2.826000000     1.529000000
C     1.084000000    -0.598000000     0.530000000
H     1.978000000    -1.140000000     0.826000000
C     1.260000000     0.740000000     0.113000000
H     2.261000000     1.144000000    -0.020000000
C     0.210000000     1.484000000    -0.448000000
C     0.505000000     2.830000000    -1.099000000
O     1.605000000     3.343000000    -1.033000000
O    -0.439000000     3.372000000    -1.582000000
