17
-91.52768
C    -0.945000000     1.119000000     0.160000000
H    -1.791000000     1.794000000     0.063000000
C    -1.158000000    -0.182000000     0.532000000
H    -2.168000000    -0.469000000     0.811000000
C    -0.184000000    -1.145000000     0.471000000
C    -0.570000000    -2.565000000     0.673000000
H    -0.448000000    -2.748000000     1.743000000
H    -1.623000000    -2.793000000     0.496000000
H     0.039000000    -3.356000000     0.231000000
C     1.092000000    -0.755000000    -0.081000000
H     1.818000000    -1.539000000    -0.280000000
C     1.294000000     0.546000000    -0.527000000
H     2.219000000     0.868000000    -0.998000000
C     0.283000000     1.481000000    -0.458000000
C     0.611000000     2.880000000    -0.874000000
O     1.758000000     3.224000000    -0.720000000
O    -0.231000000     3.648000000    -1.244000000
