17
-96.09002
C    -0.168000000    -1.360000000    -0.465000000
H    -0.156000000    -2.365000000    -0.879000000
C     0.985000000    -0.856000000     0.091000000
H     1.923000000    -1.399000000     0.020000000
C     1.019000000     0.535000000     0.427000000
C     2.310000000     1.103000000     1.031000000
H     2.808000000     0.326000000     1.614000000
H     3.105000000     1.455000000     0.371000000
H     2.040000000     1.949000000     1.667000000
C    -0.142000000     1.353000000     0.231000000
H    -0.073000000     2.409000000     0.479000000
C    -1.318000000     0.736000000    -0.155000000
H    -2.241000000     1.310000000    -0.173000000
C    -1.359000000    -0.632000000    -0.510000000
C    -2.582000000    -1.337000000    -1.135000000
O    -3.552000000    -0.678000000    -1.356000000
O    -2.595000000    -2.554000000    -1.259000000
