17
-99.93656
C    -0.555000000     0.922000000    -1.038000000
H    -1.007000000     1.552000000    -1.799000000
C    -1.318000000     0.121000000    -0.225000000
H    -2.404000000     0.110000000    -0.265000000
C    -0.683000000    -0.723000000     0.694000000
C    -1.383000000    -1.698000000     1.583000000
H    -0.856000000    -2.606000000     1.881000000
H    -1.937000000    -1.303000000     2.436000000
H    -2.218000000    -2.034000000     0.964000000
C     0.709000000    -0.736000000     0.784000000
H     1.161000000    -1.421000000     1.496000000
C     1.436000000     0.086000000    -0.019000000
H     2.508000000     0.244000000     0.069000000
C     0.852000000     0.930000000    -0.902000000
C     1.673000000     1.932000000    -1.700000000
O     2.909000000     1.747000000    -1.672000000
O     1.118000000     2.869000000    -2.282000000
