17
-91.91331
C    -0.983000000     0.926000000    -0.587000000
H    -1.824000000     1.540000000    -0.899000000
C    -1.280000000    -0.084000000     0.318000000
H    -2.319000000    -0.085000000     0.636000000
C    -0.287000000    -0.993000000     0.657000000
C    -0.546000000    -2.097000000     1.656000000
H    -1.041000000    -1.579000000     2.480000000
H    -1.210000000    -2.905000000     1.344000000
H     0.367000000    -2.500000000     2.099000000
C     1.052000000    -0.729000000     0.289000000
H     1.852000000    -1.323000000     0.723000000
C     1.388000000     0.256000000    -0.668000000
H     2.366000000     0.376000000    -1.128000000
C     0.331000000     1.101000000    -1.071000000
C     0.626000000     2.378000000    -1.720000000
O     1.621000000     2.366000000    -2.436000000
O    -0.105000000     3.345000000    -1.687000000
