17
-85.16834
C    -0.218000000     0.060000000    -1.430000000
H    -0.364000000    -0.054000000    -2.501000000
C    -0.898000000    -0.840000000    -0.550000000
H    -1.563000000    -1.615000000    -0.923000000
C    -0.588000000    -0.797000000     0.785000000
C    -1.125000000    -1.753000000     1.707000000
H    -2.197000000    -1.665000000     1.518000000
H    -0.756000000    -2.778000000     1.641000000
H    -0.905000000    -1.423000000     2.725000000
C     0.408000000     0.090000000     1.282000000
H     0.826000000     0.031000000     2.283000000
C     0.910000000     0.999000000     0.363000000
H     1.672000000     1.710000000     0.673000000
C     0.587000000     1.019000000    -0.976000000
C     1.238000000     2.014000000    -1.932000000
O     1.952000000     2.924000000    -1.534000000
O     1.021000000     2.075000000    -3.127000000
