17
-88.94079
C    -0.920000000     0.919000000    -0.581000000
H    -1.661000000     1.491000000    -1.133000000
C    -1.270000000    -0.351000000    -0.189000000
H    -2.241000000    -0.806000000    -0.365000000
C    -0.277000000    -1.193000000     0.244000000
C    -0.559000000    -2.544000000     0.745000000
H    -0.142000000    -2.599000000     1.753000000
H    -1.648000000    -2.620000000     0.774000000
H    -0.172000000    -3.313000000     0.073000000
C     1.045000000    -0.711000000     0.438000000
H     1.873000000    -1.347000000     0.739000000
C     1.322000000     0.633000000     0.160000000
H     2.338000000     1.003000000     0.273000000
C     0.325000000     1.511000000    -0.286000000
C     0.547000000     2.971000000    -0.652000000
O     1.671000000     3.454000000    -0.576000000
O    -0.223000000     3.494000000    -1.413000000
