17
-96.93519
C    -0.630000000     1.024000000    -0.875000000
H    -1.120000000     1.706000000    -1.565000000
C    -1.274000000    -0.047000000    -0.307000000
H    -2.341000000    -0.114000000    -0.499000000
C    -0.595000000    -0.935000000     0.566000000
C    -1.388000000    -2.029000000     1.229000000
H    -0.757000000    -2.671000000     1.848000000
H    -2.113000000    -1.512000000     1.861000000
H    -1.850000000    -2.732000000     0.534000000
C     0.742000000    -0.777000000     0.730000000
H     1.263000000    -1.546000000     1.295000000
C     1.489000000     0.271000000     0.113000000
H     2.570000000     0.343000000     0.206000000
C     0.760000000     1.162000000    -0.677000000
C     1.550000000     2.299000000    -1.339000000
O     2.666000000     2.430000000    -0.989000000
O     1.031000000     3.120000000    -2.128000000
