17
-92.97798
C    -0.107000000     0.541000000    -1.288000000
H    -0.267000000     0.795000000    -2.333000000
C    -0.810000000    -0.551000000    -0.862000000
H    -1.466000000    -1.078000000    -1.550000000
C    -0.606000000    -0.955000000     0.461000000
C    -1.532000000    -1.990000000     0.983000000
H    -1.346000000    -2.883000000     0.383000000
H    -1.340000000    -2.241000000     2.028000000
H    -2.580000000    -1.783000000     0.760000000
C     0.379000000    -0.341000000     1.336000000
H     0.466000000    -0.628000000     2.380000000
C     1.149000000     0.708000000     0.775000000
H     1.856000000     1.157000000     1.468000000
C     0.857000000     1.201000000    -0.529000000
C     1.634000000     2.382000000    -1.160000000
O     2.456000000     3.011000000    -0.575000000
O     1.258000000     2.647000000    -2.271000000
