17
-90.04009
C     0.317000000    -1.014000000    -1.078000000
H     0.345000000    -1.850000000    -1.772000000
C    -0.510000000    -1.155000000     0.073000000
H    -1.054000000    -2.086000000     0.212000000
C    -0.823000000    -0.127000000     0.974000000
C    -1.841000000    -0.260000000     2.082000000
H    -2.000000000    -1.323000000     2.275000000
H    -1.758000000     0.291000000     3.021000000
H    -2.806000000     0.010000000     1.647000000
C     0.030000000     0.980000000     0.876000000
H    -0.083000000     1.830000000     1.544000000
C     0.865000000     1.179000000    -0.263000000
H     1.245000000     2.193000000    -0.364000000
C     1.000000000     0.185000000    -1.265000000
C     2.035000000     0.324000000    -2.394000000
O     2.525000000     1.431000000    -2.566000000
O     2.505000000    -0.601000000    -2.998000000
