17
-92.69008
C     1.191000000    -0.613000000     0.549000000
H     1.966000000    -1.096000000     1.137000000
C    -0.090000000    -1.134000000     0.796000000
H    -0.330000000    -1.954000000     1.468000000
C    -1.154000000    -0.440000000     0.163000000
C    -2.589000000    -0.755000000     0.485000000
H    -2.808000000    -1.794000000     0.228000000
H    -2.895000000    -0.602000000     1.522000000
H    -3.230000000    -0.052000000    -0.050000000
C    -0.856000000     0.660000000    -0.647000000
H    -1.643000000     1.281000000    -1.067000000
C     0.434000000     1.149000000    -0.791000000
H     0.531000000     2.007000000    -1.451000000
C     1.521000000     0.446000000    -0.305000000
C     2.939000000     0.881000000    -0.569000000
O     3.208000000     1.950000000    -1.067000000
O     3.799000000     0.070000000    -0.402000000
