17
-96.49767
C     0.907000000     0.012000000     1.123000000
H     1.514000000    -0.169000000     2.006000000
C    -0.342000000    -0.671000000     1.047000000
H    -0.568000000    -1.389000000     1.831000000
C    -1.125000000    -0.499000000    -0.052000000
C    -2.333000000    -1.281000000    -0.037000000
H    -2.829000000    -1.248000000     0.935000000
H    -2.949000000    -0.896000000    -0.853000000
H    -2.130000000    -2.353000000    -0.069000000
C    -0.688000000     0.258000000    -1.167000000
H    -1.307000000     0.308000000    -2.059000000
C     0.561000000     0.836000000    -1.104000000
H     0.904000000     1.357000000    -1.994000000
C     1.360000000     0.784000000     0.038000000
C     2.665000000     1.525000000     0.127000000
O     2.874000000     2.408000000    -0.670000000
O     3.479000000     1.017000000     0.903000000
