17
-96.68835
C     1.338000000    -0.425000000    -0.460000000
H     2.232000000    -0.965000000    -0.760000000
C     0.280000000    -1.212000000     0.030000000
H     0.341000000    -2.276000000    -0.185000000
C    -0.887000000    -0.664000000     0.500000000
C    -2.068000000    -1.663000000     0.784000000
H    -1.782000000    -2.399000000     1.538000000
H    -3.015000000    -1.150000000     0.965000000
H    -2.168000000    -2.129000000    -0.199000000
C    -1.067000000     0.665000000     0.498000000
H    -1.997000000     1.095000000     0.859000000
C     0.013000000     1.487000000     0.082000000
H    -0.176000000     2.557000000     0.116000000
C     1.223000000     0.935000000    -0.386000000
C     2.308000000     1.834000000    -0.951000000
O     1.927000000     2.875000000    -1.480000000
O     3.492000000     1.440000000    -0.956000000
