17
-93.43533
C     0.921000000    -0.917000000    -0.547000000
H     1.613000000    -1.697000000    -0.854000000
C     0.068000000    -1.195000000     0.516000000
H     0.043000000    -2.167000000     1.002000000
C    -0.770000000    -0.207000000     0.915000000
C    -1.921000000    -0.608000000     1.884000000
H    -2.803000000    -0.968000000     1.350000000
H    -1.557000000    -1.358000000     2.589000000
H    -2.290000000     0.230000000     2.481000000
C    -0.717000000     1.087000000     0.329000000
H    -1.433000000     1.851000000     0.619000000
C     0.208000000     1.326000000    -0.705000000
H     0.349000000     2.304000000    -1.157000000
C     1.059000000     0.346000000    -1.131000000
C     2.097000000     0.602000000    -2.177000000
O     2.592000000     1.680000000    -2.246000000
O     2.540000000    -0.302000000    -2.869000000
