17
-94.17822
C     1.015000000    -1.016000000    -0.018000000
H     1.705000000    -1.830000000    -0.226000000
C    -0.280000000    -1.270000000     0.431000000
H    -0.466000000    -2.303000000     0.712000000
C    -1.196000000    -0.144000000     0.433000000
C    -2.688000000    -0.309000000     0.746000000
H    -2.849000000     0.169000000     1.715000000
H    -3.189000000     0.323000000     0.010000000
H    -3.045000000    -1.340000000     0.698000000
C    -0.715000000     1.040000000    -0.013000000
H    -1.394000000     1.882000000    -0.118000000
C     0.628000000     1.271000000    -0.372000000
H     0.900000000     2.250000000    -0.759000000
C     1.517000000     0.217000000    -0.340000000
C     2.946000000     0.318000000    -0.828000000
O     3.291000000     1.190000000    -1.642000000
O     3.822000000    -0.449000000    -0.427000000
