17
-98.58621
C     1.333000000    -0.475000000     0.482000000
H     2.260000000    -0.971000000     0.758000000
C     0.344000000    -1.283000000    -0.061000000
H     0.392000000    -2.357000000    -0.217000000
C    -0.848000000    -0.687000000    -0.466000000
C    -2.071000000    -1.520000000    -0.927000000
H    -1.954000000    -2.583000000    -0.702000000
H    -3.059000000    -1.154000000    -0.641000000
H    -2.274000000    -1.587000000    -1.998000000
C    -1.015000000     0.661000000    -0.382000000
H    -2.018000000     1.027000000    -0.587000000
C     0.004000000     1.463000000     0.133000000
H    -0.160000000     2.537000000     0.174000000
C     1.202000000     0.948000000     0.583000000
C     2.319000000     1.774000000     1.149000000
O     2.223000000     3.012000000     1.095000000
O     3.327000000     1.192000000     1.615000000
