17
-93.59082
C    -0.682000000    -0.861000000    -0.980000000
H    -1.132000000    -1.359000000    -1.835000000
C     0.629000000    -0.394000000    -1.113000000
H     1.217000000    -0.694000000    -1.976000000
C     1.152000000     0.466000000    -0.151000000
C     2.525000000     1.030000000    -0.217000000
H     2.342000000     1.998000000    -0.689000000
H     3.004000000     1.254000000     0.738000000
H     3.224000000     0.428000000    -0.800000000
C     0.364000000     0.779000000     0.937000000
H     0.676000000     1.489000000     1.699000000
C    -0.934000000     0.297000000     1.119000000
H    -1.431000000     0.526000000     2.058000000
C    -1.460000000    -0.666000000     0.147000000
C    -2.805000000    -1.293000000     0.320000000
O    -3.264000000    -1.424000000     1.417000000
O    -3.421000000    -1.568000000    -0.674000000
