17
-92.18807
C     0.885000000    -1.107000000     0.314000000
H     1.441000000    -2.009000000     0.556000000
C    -0.487000000    -1.148000000     0.315000000
H    -1.103000000    -1.996000000     0.604000000
C    -1.203000000    -0.032000000    -0.054000000
C    -2.673000000    -0.152000000    -0.173000000
H    -2.934000000    -0.926000000    -0.897000000
H    -3.174000000    -0.503000000     0.732000000
H    -3.156000000     0.770000000    -0.503000000
C    -0.525000000     1.108000000    -0.465000000
H    -1.148000000     1.906000000    -0.860000000
C     0.849000000     1.216000000    -0.387000000
H     1.344000000     2.161000000    -0.593000000
C     1.577000000     0.112000000     0.099000000
C     3.002000000     0.196000000     0.327000000
O     3.610000000     1.231000000     0.380000000
O     3.688000000    -0.823000000     0.604000000
