17
-97.91675
C     0.107000000     0.132000000     1.470000000
H     0.167000000     0.120000000     2.556000000
C    -0.688000000    -0.786000000     0.793000000
H    -1.255000000    -1.485000000     1.402000000
C    -0.653000000    -0.843000000    -0.571000000
C    -1.602000000    -1.768000000    -1.229000000
H    -1.856000000    -1.462000000    -2.246000000
H    -1.269000000    -2.806000000    -1.304000000
H    -2.539000000    -1.734000000    -0.670000000
C     0.107000000     0.050000000    -1.305000000
H     0.067000000    -0.013000000    -2.389000000
C     0.891000000     1.005000000    -0.700000000
H     1.477000000     1.688000000    -1.309000000
C     0.910000000     1.019000000     0.690000000
C     1.777000000     2.025000000     1.395000000
O     2.631000000     2.668000000     0.795000000
O     1.722000000     2.198000000     2.615000000
