17
-97.04326
C     0.905000000     0.071000000     1.208000000
H     1.280000000     0.205000000     2.219000000
C    -0.222000000    -0.799000000     1.084000000
H    -0.632000000    -1.486000000     1.820000000
C    -0.941000000    -0.796000000    -0.089000000
C    -2.184000000    -1.583000000    -0.211000000
H    -2.202000000    -2.266000000     0.641000000
H    -2.985000000    -0.841000000    -0.210000000
H    -2.267000000    -2.117000000    -1.160000000
C    -0.548000000    -0.003000000    -1.181000000
H    -1.134000000     0.024000000    -2.097000000
C     0.589000000     0.860000000    -1.125000000
H     0.739000000     1.592000000    -1.916000000
C     1.259000000     0.909000000     0.109000000
C     2.456000000     1.867000000     0.306000000
O     2.542000000     2.824000000    -0.483000000
O     3.350000000     1.546000000     1.087000000
