17
-90.44598
C     0.530000000    -1.091000000     0.894000000
H     1.061000000    -1.774000000     1.551000000
C     1.244000000    -0.162000000     0.127000000
H     2.324000000    -0.277000000     0.078000000
C     0.631000000     0.685000000    -0.793000000
C     1.476000000     1.508000000    -1.708000000
H     2.304000000     0.939000000    -2.136000000
H     0.940000000     1.805000000    -2.612000000
H     1.775000000     2.425000000    -1.195000000
C    -0.784000000     0.852000000    -0.711000000
H    -1.309000000     1.562000000    -1.345000000
C    -1.488000000     0.044000000     0.133000000
H    -2.560000000     0.212000000     0.193000000
C    -0.849000000    -0.952000000     0.914000000
C    -1.558000000    -1.697000000     1.936000000
O    -2.766000000    -1.632000000     2.034000000
O    -0.963000000    -2.451000000     2.638000000
