17
-97.23508
C    -0.454000000     0.484000000     1.357000000
H    -0.906000000     0.694000000     2.324000000
C    -1.253000000     0.165000000     0.264000000
H    -2.308000000     0.248000000     0.512000000
C    -0.762000000    -0.314000000    -0.934000000
C    -1.713000000    -0.822000000    -2.035000000
H    -1.351000000    -0.537000000    -3.025000000
H    -1.743000000    -1.906000000    -1.915000000
H    -2.737000000    -0.486000000    -1.859000000
C     0.624000000    -0.352000000    -1.100000000
H     1.082000000    -0.644000000    -2.041000000
C     1.436000000     0.003000000    -0.055000000
H     2.491000000    -0.143000000    -0.273000000
C     0.949000000     0.538000000     1.175000000
C     1.942000000     0.952000000     2.240000000
O     2.991000000     0.308000000     2.292000000
O     1.716000000     1.815000000     3.072000000
