17
-92.50318
C    -0.554000000     0.484000000     1.310000000
H    -1.013000000     0.544000000     2.293000000
C    -1.263000000    -0.222000000     0.363000000
H    -2.243000000    -0.665000000     0.516000000
C    -0.673000000    -0.428000000    -0.848000000
C    -1.369000000    -1.360000000    -1.909000000
H    -2.053000000    -2.087000000    -1.466000000
H    -1.892000000    -0.898000000    -2.749000000
H    -0.563000000    -1.990000000    -2.291000000
C     0.537000000     0.084000000    -1.140000000
H     0.826000000     0.020000000    -2.186000000
C     1.322000000     0.642000000    -0.208000000
H     2.331000000     0.901000000    -0.517000000
C     0.794000000     0.844000000     1.084000000
C     1.712000000     1.275000000     2.272000000
O     2.926000000     1.435000000     2.088000000
O     1.171000000     1.424000000     3.387000000
