17
-99.27746
C    -1.251000000    -0.594000000     0.426000000
H    -2.237000000    -0.957000000     0.707000000
C    -0.780000000    -0.677000000    -0.874000000
H    -1.348000000    -1.252000000    -1.600000000
C     0.431000000    -0.065000000    -1.171000000
C     1.048000000    -0.152000000    -2.552000000
H     0.363000000     0.370000000    -3.223000000
H     2.115000000     0.081000000    -2.529000000
H     0.956000000    -1.214000000    -2.791000000
C     1.174000000     0.614000000    -0.188000000
H     2.173000000     0.996000000    -0.382000000
C     0.687000000     0.740000000     1.129000000
H     1.184000000     1.301000000     1.916000000
C    -0.563000000     0.154000000     1.425000000
C    -1.177000000     0.246000000     2.837000000
O    -0.814000000     1.074000000     3.658000000
O    -1.968000000    -0.657000000     3.205000000
