17
-93.47942
C     0.032000000     0.895000000     1.123000000
H     0.104000000     1.398000000     2.084000000
C    -1.067000000     0.150000000     0.790000000
H    -1.982000000     0.023000000     1.363000000
C    -0.984000000    -0.641000000    -0.307000000
C    -2.152000000    -1.537000000    -0.669000000
H    -2.563000000    -1.143000000    -1.600000000
H    -1.749000000    -2.544000000    -0.791000000
H    -2.973000000    -1.563000000     0.051000000
C     0.189000000    -0.626000000    -1.111000000
H     0.279000000    -1.258000000    -1.991000000
C     1.282000000     0.178000000    -0.802000000
H     2.173000000     0.174000000    -1.425000000
C     1.199000000     0.917000000     0.384000000
C     2.435000000     1.637000000     0.859000000
O     3.392000000     1.759000000     0.133000000
O     2.378000000     2.175000000     1.913000000
