17
-98.90296
C    -0.938000000     0.258000000     1.115000000
H    -1.775000000     0.413000000     1.791000000
C    -1.102000000    -0.714000000     0.152000000
H    -2.009000000    -1.312000000     0.116000000
C    -0.080000000    -0.908000000    -0.777000000
C    -0.238000000    -2.035000000    -1.803000000
H     0.688000000    -2.220000000    -2.352000000
H    -0.595000000    -2.964000000    -1.355000000
H    -0.972000000    -1.812000000    -2.580000000
C     1.024000000    -0.028000000    -0.808000000
H     1.696000000    -0.163000000    -1.652000000
C     1.140000000     0.963000000     0.163000000
H     1.956000000     1.674000000     0.068000000
C     0.146000000     1.110000000     1.143000000
C     0.300000000     2.273000000     2.003000000
O     1.348000000     2.977000000     1.988000000
O    -0.597000000     2.484000000     2.789000000
