17
-97.26496
C    -0.989000000    -0.953000000     0.416000000
H    -1.673000000    -1.764000000     0.651000000
C     0.322000000    -1.262000000     0.140000000
H     0.697000000    -2.278000000     0.223000000
C     1.191000000    -0.220000000    -0.223000000
C     2.720000000    -0.539000000    -0.459000000
H     2.841000000    -1.621000000    -0.549000000
H     3.083000000    -0.089000000    -1.385000000
H     3.309000000    -0.109000000     0.354000000
C     0.702000000     1.028000000    -0.295000000
H     1.385000000     1.813000000    -0.607000000
C    -0.687000000     1.337000000    -0.154000000
H    -1.096000000     2.333000000    -0.308000000
C    -1.518000000     0.327000000     0.280000000
C    -3.016000000     0.584000000     0.524000000
O    -3.594000000     1.641000000     0.211000000
O    -3.670000000    -0.232000000     1.185000000
