17
-87.26519
C    -0.848000000    -0.171000000     1.096000000
H    -1.462000000    -0.583000000     1.893000000
C    -0.696000000    -1.034000000     0.054000000
H    -1.310000000    -1.920000000     0.201000000
C     0.132000000    -0.823000000    -0.944000000
C     0.456000000    -1.856000000    -2.047000000
H     0.080000000    -1.526000000    -3.018000000
H     1.533000000    -1.789000000    -2.212000000
H     0.043000000    -2.829000000    -1.773000000
C     0.946000000     0.368000000    -0.834000000
H     1.597000000     0.624000000    -1.665000000
C     0.753000000     1.335000000     0.172000000
H     1.276000000     2.288000000     0.183000000
C    -0.230000000     1.047000000     1.165000000
C    -0.638000000     2.014000000     2.289000000
O     0.053000000     2.988000000     2.518000000
O    -1.678000000     1.873000000     2.926000000
