17
-93.90673
C    -1.475000000    -0.291000000    -0.092000000
H    -2.524000000    -0.513000000    -0.275000000
C    -0.491000000    -0.681000000    -1.031000000
H    -0.801000000    -1.344000000    -1.835000000
C     0.853000000    -0.420000000    -0.754000000
C     1.839000000    -0.696000000    -1.893000000
H     2.269000000     0.213000000    -2.317000000
H     2.665000000    -1.251000000    -1.442000000
H     1.358000000    -1.179000000    -2.746000000
C     1.242000000     0.414000000     0.243000000
H     2.264000000     0.725000000     0.445000000
C     0.262000000     0.748000000     1.229000000
H     0.567000000     1.355000000     2.078000000
C    -1.134000000     0.501000000     1.019000000
C    -2.080000000     0.768000000     2.145000000
O    -1.589000000     1.160000000     3.219000000
O    -3.228000000     0.486000000     2.010000000
