17
-92.60524
C    -1.312000000    -0.389000000    -0.109000000
H    -2.305000000    -0.773000000    -0.325000000
C    -0.375000000    -0.715000000    -1.015000000
H    -0.594000000    -1.379000000    -1.848000000
C     0.929000000    -0.269000000    -0.768000000
C     1.933000000    -0.611000000    -1.813000000
H     2.709000000    -1.320000000    -1.517000000
H     1.434000000    -1.057000000    -2.676000000
H     2.380000000     0.283000000    -2.254000000
C     1.193000000     0.588000000     0.323000000
H     2.188000000     0.969000000     0.540000000
C     0.192000000     0.872000000     1.312000000
H     0.404000000     1.422000000     2.226000000
C    -1.123000000     0.356000000     1.083000000
C    -2.237000000     0.614000000     2.048000000
O    -2.137000000     1.359000000     2.977000000
O    -3.279000000     0.048000000     1.822000000
