17
-88.14624
C    -0.976000000     0.581000000    -0.969000000
H    -1.632000000     1.054000000    -1.695000000
C     0.132000000    -0.276000000    -1.307000000
H     0.376000000    -0.457000000    -2.351000000
C     0.918000000    -0.743000000    -0.317000000
C     2.040000000    -1.614000000    -0.600000000
H     2.984000000    -1.272000000    -0.171000000
H     1.846000000    -2.628000000    -0.243000000
H     2.247000000    -1.696000000    -1.669000000
C     0.690000000    -0.426000000     1.015000000
H     1.427000000    -0.799000000     1.721000000
C    -0.307000000     0.482000000     1.352000000
H    -0.459000000     0.721000000     2.401000000
C    -1.220000000     0.934000000     0.414000000
C    -2.354000000     1.825000000     0.745000000
O    -2.490000000     2.347000000     1.783000000
O    -3.224000000     1.971000000    -0.104000000
