17
-92.07212
C    -0.511000000     0.828000000    -1.037000000
H    -0.718000000     1.485000000    -1.878000000
C     0.539000000    -0.091000000    -1.172000000
H     0.915000000    -0.237000000    -2.182000000
C     0.934000000    -0.838000000    -0.096000000
C     1.983000000    -1.908000000    -0.200000000
H     2.997000000    -1.624000000     0.091000000
H     1.734000000    -2.654000000     0.558000000
H     1.993000000    -2.381000000    -1.184000000
C     0.228000000    -0.625000000     1.085000000
H     0.521000000    -1.262000000     1.916000000
C    -0.912000000     0.237000000     1.155000000
H    -1.491000000     0.365000000     2.065000000
C    -1.214000000     1.024000000     0.083000000
C    -2.182000000     2.174000000     0.256000000
O    -2.196000000     2.813000000     1.320000000
O    -2.625000000     2.692000000    -0.778000000
