17
-95.71750
C    -0.948000000    -0.554000000    -0.993000000
H    -1.552000000    -0.958000000    -1.801000000
C     0.443000000    -0.814000000    -0.978000000
H     0.929000000    -1.368000000    -1.777000000
C     1.236000000    -0.267000000    -0.012000000
C     2.680000000    -0.482000000     0.051000000
H     2.836000000    -1.339000000     0.708000000
H     2.966000000    -0.728000000    -0.974000000
H     3.191000000     0.408000000     0.425000000
C     0.626000000     0.594000000     0.931000000
H     1.223000000     0.994000000     1.747000000
C    -0.731000000     0.831000000     0.946000000
H    -1.187000000     1.545000000     1.626000000
C    -1.529000000     0.247000000     0.010000000
C    -3.039000000     0.522000000     0.097000000
O    -3.413000000     1.545000000     0.601000000
O    -3.729000000    -0.181000000    -0.605000000
