17
-81.66237
C    -0.914000000    -1.053000000     0.055000000
H    -1.479000000    -1.978000000     0.131000000
C     0.494000000    -1.210000000     0.144000000
H     0.961000000    -2.189000000     0.196000000
C     1.250000000    -0.094000000     0.087000000
C     2.724000000    -0.173000000     0.194000000
H     3.172000000    -0.845000000    -0.541000000
H     3.167000000     0.825000000     0.206000000
H     3.082000000    -0.561000000     1.150000000
C     0.596000000     1.061000000    -0.133000000
H     1.216000000     1.927000000    -0.352000000
C    -0.781000000     1.270000000    -0.248000000
H    -1.340000000     2.183000000    -0.436000000
C    -1.587000000     0.162000000    -0.123000000
C    -3.142000000     0.186000000    -0.214000000
O    -3.615000000     1.267000000    -0.170000000
O    -3.805000000    -0.773000000     0.050000000
