17
-92.10293
C    -1.120000000     0.069000000    -1.046000000
H    -1.837000000     0.261000000    -1.840000000
C     0.166000000    -0.448000000    -1.266000000
H     0.466000000    -0.965000000    -2.174000000
C     1.108000000    -0.482000000    -0.250000000
C     2.445000000    -1.066000000    -0.346000000
H     2.801000000    -0.616000000    -1.275000000
H     3.192000000    -0.778000000     0.396000000
H     2.390000000    -2.151000000    -0.459000000
C     0.779000000    -0.099000000     1.064000000
H     1.433000000    -0.187000000     1.928000000
C    -0.568000000     0.369000000     1.333000000
H    -0.798000000     0.726000000     2.334000000
C    -1.441000000     0.496000000     0.268000000
C    -2.698000000     1.315000000     0.440000000
O    -2.786000000     2.139000000     1.366000000
O    -3.538000000     1.413000000    -0.475000000
