17
-94.22403
C    -0.142000000    -0.762000000    -1.307000000
H    -0.137000000    -1.328000000    -2.235000000
C     0.994000000    -0.421000000    -0.668000000
H     1.917000000    -0.682000000    -1.179000000
C     1.056000000     0.330000000     0.485000000
C     2.362000000     0.551000000     1.206000000
H     3.177000000     0.762000000     0.510000000
H     2.336000000     1.365000000     1.933000000
H     2.656000000    -0.283000000     1.847000000
C    -0.070000000     0.878000000     1.009000000
H    -0.089000000     1.474000000     1.918000000
C    -1.283000000     0.529000000     0.369000000
H    -2.203000000     0.823000000     0.868000000
C    -1.332000000    -0.382000000    -0.691000000
C    -2.699000000    -0.802000000    -1.248000000
O    -3.725000000    -0.639000000    -0.550000000
O    -2.820000000    -1.417000000    -2.275000000
