17
-96.44857
C    -0.724000000    -0.338000000    -1.256000000
H    -1.159000000    -0.554000000    -2.229000000
C     0.571000000    -0.714000000    -0.979000000
H     1.204000000    -1.221000000    -1.703000000
C     1.119000000    -0.438000000     0.306000000
C     2.577000000    -0.764000000     0.520000000
H     3.094000000    -1.269000000    -0.298000000
H     3.049000000     0.209000000     0.678000000
H     2.625000000    -1.316000000     1.461000000
C     0.420000000     0.331000000     1.205000000
H     0.882000000     0.757000000     2.092000000
C    -0.919000000     0.672000000     0.920000000
H    -1.437000000     1.317000000     1.625000000
C    -1.516000000     0.359000000    -0.317000000
C    -2.866000000     0.854000000    -0.596000000
O    -3.588000000     1.279000000     0.291000000
O    -3.326000000     0.837000000    -1.727000000
