17
-94.35974
C    -1.166000000    -0.405000000    -0.736000000
H    -1.940000000    -0.903000000    -1.315000000
C     0.141000000    -0.904000000    -0.965000000
H     0.331000000    -1.639000000    -1.743000000
C     1.138000000    -0.426000000    -0.183000000
C     2.553000000    -0.874000000    -0.530000000
H     3.031000000     0.028000000    -0.917000000
H     3.012000000    -1.304000000     0.363000000
H     2.595000000    -1.739000000    -1.196000000
C     0.917000000     0.539000000     0.759000000
H     1.749000000     0.845000000     1.387000000
C    -0.437000000     0.916000000     1.033000000
H    -0.698000000     1.498000000     1.914000000
C    -1.479000000     0.555000000     0.233000000
C    -2.859000000     1.121000000     0.532000000
O    -3.071000000     1.652000000     1.641000000
O    -3.823000000     1.046000000    -0.271000000
