17
-92.68553
C     0.778000000     1.307000000    -0.197000000
H     1.407000000     2.193000000    -0.168000000
C     1.354000000     0.008000000    -0.091000000
H     2.403000000    -0.194000000     0.111000000
C     0.514000000    -1.080000000    -0.020000000
C     1.046000000    -2.465000000     0.187000000
H     0.586000000    -2.890000000     1.081000000
H     0.691000000    -3.161000000    -0.576000000
H     2.132000000    -2.578000000     0.166000000
C    -0.822000000    -0.933000000    -0.125000000
H    -1.307000000    -1.906000000    -0.154000000
C    -1.423000000     0.314000000    -0.159000000
H    -2.506000000     0.409000000    -0.166000000
C    -0.644000000     1.444000000    -0.163000000
C    -1.247000000     2.821000000     0.035000000
O    -2.442000000     2.951000000    -0.013000000
O    -0.523000000     3.762000000     0.247000000
