17
-94.14518
C     0.693000000     1.311000000    -0.016000000
H     1.241000000     2.229000000     0.183000000
C     0.795000000     0.319000000     0.986000000
H     1.362000000     0.442000000     1.905000000
C     0.093000000    -0.865000000     0.891000000
C     0.047000000    -1.830000000     2.044000000
H    -1.008000000    -1.935000000     2.307000000
H     0.457000000    -2.790000000     1.725000000
H     0.607000000    -1.608000000     2.955000000
C    -0.571000000    -1.115000000    -0.286000000
H    -0.996000000    -2.106000000    -0.426000000
C    -0.750000000    -0.130000000    -1.305000000
H    -1.171000000    -0.294000000    -2.294000000
C    -0.101000000     1.123000000    -1.167000000
C    -0.188000000     2.117000000    -2.213000000
O    -0.678000000     1.881000000    -3.330000000
O     0.160000000     3.247000000    -1.951000000
