17
-93.10292
C    -0.494000000     1.272000000     0.728000000
H    -0.937000000     2.078000000     1.307000000
C    -0.642000000    -0.045000000     1.149000000
H    -1.177000000    -0.218000000     2.080000000
C    -0.083000000    -1.097000000     0.443000000
C    -0.507000000    -2.514000000     0.809000000
H    -0.828000000    -3.154000000    -0.016000000
H     0.294000000    -3.184000000     1.128000000
H    -1.277000000    -2.516000000     1.584000000
C     0.547000000    -0.911000000    -0.777000000
H     0.992000000    -1.731000000    -1.335000000
C     0.767000000     0.409000000    -1.184000000
H     1.339000000     0.598000000    -2.089000000
C     0.334000000     1.453000000    -0.399000000
C     0.519000000     2.819000000    -0.991000000
O     0.879000000     2.998000000    -2.157000000
O     0.270000000     3.740000000    -0.280000000
