17
-92.06228
C     0.984000000     1.000000000    -0.318000000
H     1.873000000     1.608000000    -0.460000000
C     1.029000000     0.110000000     0.740000000
H     1.859000000     0.175000000     1.439000000
C    -0.024000000    -0.734000000     1.014000000
C     0.083000000    -1.687000000     2.132000000
H    -0.929000000    -1.932000000     2.462000000
H     0.594000000    -2.598000000     1.813000000
H     0.695000000    -1.380000000     2.982000000
C    -0.977000000    -0.839000000     0.003000000
H    -1.696000000    -1.640000000     0.152000000
C    -1.089000000     0.021000000    -1.119000000
H    -1.864000000    -0.189000000    -1.851000000
C    -0.140000000     1.072000000    -1.233000000
C    -0.135000000     2.064000000    -2.279000000
O    -1.108000000     2.146000000    -2.998000000
O     0.848000000     2.797000000    -2.483000000
