17
-90.52843
C     0.209000000     1.371000000     0.456000000
H     0.363000000     2.354000000     0.893000000
C    -0.212000000     0.293000000     1.184000000
H    -0.541000000     0.417000000     2.213000000
C    -0.232000000    -1.004000000     0.711000000
C    -0.892000000    -2.105000000     1.600000000
H    -0.254000000    -2.316000000     2.460000000
H    -1.800000000    -1.769000000     2.106000000
H    -1.131000000    -3.015000000     1.046000000
C     0.105000000    -1.161000000    -0.639000000
H     0.011000000    -2.162000000    -1.052000000
C     0.463000000    -0.082000000    -1.439000000
H     0.739000000    -0.141000000    -2.488000000
C     0.491000000     1.194000000    -0.913000000
C     0.808000000     2.403000000    -1.809000000
O     1.077000000     2.241000000    -2.974000000
O     0.801000000     3.485000000    -1.359000000
