17
-96.59541
C    -0.752000000     1.260000000    -0.438000000
H    -1.440000000     2.057000000    -0.708000000
C    -1.149000000     0.409000000     0.594000000
H    -2.068000000     0.576000000     1.149000000
C    -0.336000000    -0.766000000     0.855000000
C    -0.738000000    -1.822000000     1.918000000
H     0.126000000    -2.431000000     2.192000000
H    -1.235000000    -1.459000000     2.820000000
H    -1.412000000    -2.551000000     1.464000000
C     0.857000000    -0.912000000     0.258000000
H     1.433000000    -1.782000000     0.563000000
C     1.232000000    -0.051000000    -0.786000000
H     2.118000000    -0.285000000    -1.371000000
C     0.404000000     1.021000000    -1.104000000
C     0.806000000     2.003000000    -2.232000000
O     1.425000000     1.525000000    -3.173000000
O     0.721000000     3.207000000    -2.005000000
