17
-98.63086
C    -0.034000000     0.929000000     1.136000000
H    -0.037000000     1.484000000     2.071000000
C    -0.293000000    -0.434000000     1.239000000
H    -0.656000000    -0.972000000     2.111000000
C    -0.276000000    -1.163000000     0.086000000
C    -0.523000000    -2.692000000     0.145000000
H    -0.303000000    -3.173000000    -0.811000000
H     0.078000000    -3.269000000     0.851000000
H    -1.592000000    -2.859000000     0.294000000
C     0.015000000    -0.583000000    -1.174000000
H     0.027000000    -1.138000000    -2.109000000
C     0.287000000     0.776000000    -1.245000000
H     0.413000000     1.313000000    -2.181000000
C     0.299000000     1.525000000    -0.101000000
C     0.714000000     3.060000000    -0.101000000
O     0.994000000     3.587000000    -1.175000000
O     0.882000000     3.601000000     0.965000000
