17
-89.59663
C     0.111000000     1.194000000     0.867000000
H     0.043000000     2.028000000     1.561000000
C    -0.421000000    -0.055000000     1.304000000
H    -0.760000000    -0.100000000     2.335000000
C    -0.459000000    -1.073000000     0.347000000
C    -0.943000000    -2.411000000     0.693000000
H    -1.919000000    -2.340000000     1.178000000
H    -1.218000000    -3.020000000    -0.171000000
H    -0.269000000    -3.016000000     1.304000000
C    -0.025000000    -0.891000000    -0.959000000
H    -0.103000000    -1.647000000    -1.736000000
C     0.397000000     0.361000000    -1.347000000
H     0.767000000     0.392000000    -2.369000000
C     0.537000000     1.419000000    -0.447000000
C     1.162000000     2.776000000    -0.801000000
O     1.566000000     2.947000000    -1.889000000
O     1.530000000     3.441000000     0.136000000
