17
-89.10157
C     0.236000000     1.270000000     0.551000000
H     0.358000000     2.172000000     1.145000000
C    -0.227000000     0.133000000     1.214000000
H    -0.426000000     0.090000000     2.281000000
C    -0.336000000    -1.039000000     0.525000000
C    -0.713000000    -2.292000000     1.302000000
H    -0.119000000    -2.322000000     2.217000000
H    -1.749000000    -2.071000000     1.570000000
H    -0.564000000    -3.241000000     0.783000000
C    -0.156000000    -0.986000000    -0.815000000
H    -0.313000000    -1.890000000    -1.398000000
C     0.156000000     0.149000000    -1.508000000
H     0.389000000     0.110000000    -2.569000000
C     0.426000000     1.247000000    -0.781000000
C     0.879000000     2.554000000    -1.362000000
O     1.058000000     2.678000000    -2.577000000
O     1.099000000     3.435000000    -0.585000000
