17
-90.17529
C    -0.167000000     1.162000000    -0.833000000
H    -0.296000000     2.092000000    -1.381000000
C    -0.839000000     0.941000000     0.333000000
H    -1.589000000     1.584000000     0.787000000
C    -0.584000000    -0.243000000     1.017000000
C    -1.359000000    -0.357000000     2.329000000
H    -1.289000000     0.453000000     3.058000000
H    -2.413000000    -0.459000000     2.059000000
H    -1.196000000    -1.292000000     2.869000000
C     0.374000000    -1.153000000     0.543000000
H     0.613000000    -2.012000000     1.164000000
C     1.060000000    -0.945000000    -0.613000000
H     1.808000000    -1.651000000    -0.967000000
C     0.812000000     0.220000000    -1.332000000
C     1.620000000     0.493000000    -2.613000000
O     2.003000000    -0.419000000    -3.286000000
O     1.441000000     1.594000000    -3.142000000
