17
-98.82353
C     0.337000000     1.144000000     0.897000000
H     0.525000000     1.855000000     1.698000000
C    -0.211000000    -0.087000000     1.299000000
H    -0.485000000    -0.298000000     2.329000000
C    -0.432000000    -1.111000000     0.374000000
C    -1.072000000    -2.423000000     0.814000000
H    -1.306000000    -3.011000000    -0.077000000
H    -0.413000000    -2.949000000     1.508000000
H    -2.048000000    -2.250000000     1.273000000
C    -0.028000000    -0.895000000    -1.031000000
H    -0.196000000    -1.708000000    -1.732000000
C     0.439000000     0.364000000    -1.417000000
H     0.702000000     0.526000000    -2.459000000
C     0.648000000     1.389000000    -0.439000000
C     1.080000000     2.773000000    -0.883000000
O     1.016000000     3.062000000    -2.063000000
O     1.443000000     3.620000000    -0.084000000
