17
-94.22857
C    -0.059000000     1.124000000     0.938000000
H    -0.281000000     1.964000000     1.592000000
C    -0.476000000    -0.168000000     1.226000000
H    -0.949000000    -0.355000000     2.187000000
C    -0.376000000    -1.117000000     0.293000000
C    -0.851000000    -2.528000000     0.536000000
H    -1.878000000    -2.503000000     0.905000000
H    -0.787000000    -3.211000000    -0.314000000
H    -0.252000000    -2.930000000     1.356000000
C     0.237000000    -0.840000000    -0.953000000
H     0.424000000    -1.723000000    -1.560000000
C     0.760000000     0.397000000    -1.214000000
H     1.278000000     0.518000000    -2.162000000
C     0.495000000     1.451000000    -0.339000000
C     0.738000000     2.926000000    -0.750000000
O     1.258000000     3.195000000    -1.847000000
O     0.723000000     3.800000000     0.110000000
