17
-93.86671
C    -0.144000000     1.488000000     0.106000000
H    -0.346000000     2.543000000     0.272000000
C    -0.766000000     0.532000000     0.886000000
H    -1.477000000     0.913000000     1.614000000
C    -0.597000000    -0.847000000     0.650000000
C    -1.218000000    -1.749000000     1.693000000
H    -2.012000000    -1.292000000     2.287000000
H    -1.833000000    -2.458000000     1.134000000
H    -0.402000000    -2.234000000     2.234000000
C     0.226000000    -1.317000000    -0.371000000
H     0.426000000    -2.370000000    -0.547000000
C     0.934000000    -0.347000000    -1.112000000
H     1.622000000    -0.756000000    -1.847000000
C     0.682000000     1.031000000    -0.977000000
C     1.435000000     2.038000000    -1.772000000
O     2.121000000     1.649000000    -2.753000000
O     1.353000000     3.177000000    -1.492000000
