17
-103.81419
C    -0.105000000    -0.575000000    -1.395000000
H    -0.229000000    -0.931000000    -2.415000000
C    -0.817000000     0.522000000    -0.897000000
H    -1.478000000     1.065000000    -1.566000000
C    -0.649000000     0.941000000     0.414000000
C    -1.377000000     2.150000000     0.887000000
H    -1.999000000     1.878000000     1.742000000
H    -0.683000000     2.879000000     1.310000000
H    -1.976000000     2.581000000     0.081000000
C     0.330000000     0.363000000     1.261000000
H     0.510000000     0.788000000     2.245000000
C     1.028000000    -0.689000000     0.745000000
H     1.727000000    -1.231000000     1.376000000
C     0.785000000    -1.208000000    -0.532000000
C     1.472000000    -2.519000000    -0.933000000
O     2.059000000    -3.280000000    -0.152000000
O     1.406000000    -2.734000000    -2.170000000
