17
-94.62432
C     0.615000000    -0.374000000    -1.319000000
H     0.906000000    -0.544000000    -2.352000000
C    -0.332000000     0.620000000    -1.064000000
H    -0.698000000     1.234000000    -1.883000000
C    -0.922000000     0.847000000     0.209000000
C    -2.017000000     1.844000000     0.448000000
H    -2.420000000     2.259000000    -0.478000000
H    -2.886000000     1.488000000     1.006000000
H    -1.650000000     2.661000000     1.072000000
C    -0.396000000     0.126000000     1.268000000
H    -0.760000000     0.185000000     2.290000000
C     0.645000000    -0.814000000     1.081000000
H     1.097000000    -1.434000000     1.850000000
C     1.167000000    -1.049000000    -0.222000000
C     2.181000000    -2.146000000    -0.511000000
O     3.004000000    -2.497000000     0.313000000
O     2.468000000    -2.407000000    -1.715000000
