17
-101.29790
C     0.674000000    -0.445000000    -1.243000000
H     1.016000000    -0.637000000    -2.257000000
C    -0.291000000     0.567000000    -1.176000000
H    -0.482000000     1.178000000    -2.055000000
C    -0.831000000     0.913000000     0.071000000
C    -1.654000000     2.194000000     0.215000000
H    -2.677000000     1.958000000     0.515000000
H    -1.260000000     2.855000000     0.989000000
H    -1.741000000     2.817000000    -0.678000000
C    -0.503000000     0.143000000     1.188000000
H    -0.947000000     0.385000000     2.150000000
C     0.388000000    -0.933000000     1.077000000
H     0.550000000    -1.636000000     1.889000000
C     1.047000000    -1.195000000    -0.117000000
C     1.967000000    -2.411000000    -0.175000000
O     2.253000000    -3.027000000     0.846000000
O     2.494000000    -2.718000000    -1.244000000
