17
-94.90442
C     0.163000000    -0.414000000    -1.440000000
H     0.077000000    -0.777000000    -2.460000000
C    -0.667000000     0.558000000    -0.959000000
H    -1.287000000     1.038000000    -1.711000000
C    -0.790000000     0.881000000     0.390000000
C    -1.641000000     2.017000000     0.870000000
H    -2.685000000     1.728000000     1.012000000
H    -1.235000000     2.334000000     1.833000000
H    -1.743000000     2.824000000     0.141000000
C    -0.005000000     0.170000000     1.259000000
H     0.029000000     0.467000000     2.304000000
C     0.849000000    -0.851000000     0.788000000
H     1.563000000    -1.231000000     1.513000000
C     0.909000000    -1.193000000    -0.531000000
C     1.882000000    -2.259000000    -0.911000000
O     2.494000000    -2.772000000    -0.015000000
O     2.082000000    -2.521000000    -2.078000000
