17
-97.63650
C     0.610000000    -0.885000000    -1.018000000
H     1.083000000    -1.390000000    -1.856000000
C     0.251000000     0.505000000    -1.149000000
H     0.464000000     0.999000000    -2.094000000
C    -0.359000000     1.222000000    -0.110000000
C    -0.725000000     2.683000000    -0.339000000
H    -0.232000000     3.241000000     0.460000000
H    -0.328000000     2.986000000    -1.310000000
H    -1.802000000     2.773000000    -0.186000000
C    -0.564000000     0.500000000     1.080000000
H    -0.961000000     1.067000000     1.918000000
C    -0.253000000    -0.864000000     1.193000000
H    -0.464000000    -1.316000000     2.158000000
C     0.385000000    -1.533000000     0.158000000
C     0.881000000    -2.944000000     0.326000000
O     0.604000000    -3.461000000     1.368000000
O     1.414000000    -3.588000000    -0.597000000
