17
-91.78248
C    -0.680000000    -0.446000000    -1.250000000
H    -1.039000000    -0.950000000    -2.143000000
C     0.582000000    -0.810000000    -0.806000000
H     1.239000000    -1.435000000    -1.405000000
C     1.053000000    -0.400000000     0.409000000
C     2.507000000    -0.772000000     0.884000000
H     2.744000000    -1.620000000     0.239000000
H     3.234000000     0.007000000     0.645000000
H     2.662000000    -1.019000000     1.936000000
C     0.326000000     0.465000000     1.167000000
H     0.792000000     1.014000000     1.981000000
C    -0.945000000     0.850000000     0.789000000
H    -1.497000000     1.591000000     1.363000000
C    -1.490000000     0.366000000    -0.445000000
C    -2.789000000     0.929000000    -0.948000000
O    -3.621000000     1.582000000    -0.312000000
O    -3.077000000     0.645000000    -2.111000000
