17
-97.71807
C     0.663000000    -1.013000000    -0.843000000
H     1.085000000    -1.692000000    -1.579000000
C    -0.203000000    -0.034000000    -1.282000000
H    -0.472000000    -0.017000000    -2.335000000
C    -0.865000000     0.824000000    -0.405000000
C    -1.861000000     1.946000000    -0.791000000
H    -2.123000000     2.527000000     0.095000000
H    -1.315000000     2.633000000    -1.441000000
H    -2.689000000     1.530000000    -1.369000000
C    -0.422000000     0.756000000     0.949000000
H    -0.843000000     1.529000000     1.587000000
C     0.521000000    -0.195000000     1.416000000
H     0.873000000    -0.075000000     2.438000000
C     0.994000000    -1.175000000     0.487000000
C     1.981000000    -2.235000000     0.884000000
O     2.098000000    -2.385000000     2.113000000
O     2.573000000    -2.922000000     0.080000000
