17
-80.32935
C    -0.199000000    -1.304000000    -0.696000000
H    -0.380000000    -2.243000000    -1.213000000
C    -0.436000000     0.013000000    -1.202000000
H    -0.839000000     0.170000000    -2.199000000
C    -0.135000000     1.113000000    -0.470000000
C    -0.218000000     2.538000000    -1.121000000
H     0.613000000     3.154000000    -0.770000000
H    -0.105000000     2.432000000    -2.202000000
H    -1.204000000     2.953000000    -0.902000000
C     0.363000000     0.979000000     0.790000000
H     0.629000000     1.890000000     1.320000000
C     0.466000000    -0.290000000     1.342000000
H     0.851000000    -0.246000000     2.357000000
C     0.154000000    -1.453000000     0.615000000
C     0.227000000    -2.861000000     1.228000000
O     0.269000000    -2.986000000     2.448000000
O    -0.049000000    -3.863000000     0.678000000
