17
-96.08539
C     0.469000000    -1.097000000    -0.903000000
H     1.065000000    -1.597000000    -1.661000000
C    -0.262000000     0.020000000    -1.313000000
H    -0.375000000     0.227000000    -2.374000000
C    -0.804000000     0.892000000    -0.393000000
C    -1.286000000     2.280000000    -0.814000000
H    -0.402000000     2.891000000    -1.012000000
H    -1.753000000     2.140000000    -1.791000000
H    -1.881000000     2.706000000    -0.003000000
C    -0.630000000     0.670000000     0.983000000
H    -0.923000000     1.383000000     1.749000000
C     0.111000000    -0.435000000     1.436000000
H     0.314000000    -0.601000000     2.491000000
C     0.655000000    -1.303000000     0.449000000
C     1.615000000    -2.439000000     0.940000000
O     1.924000000    -2.563000000     2.103000000
O     2.163000000    -3.175000000     0.106000000
