17
-93.67833
C     0.249000000    -0.845000000     1.233000000
H     0.386000000    -1.539000000     2.059000000
C    -0.745000000    -1.063000000     0.283000000
H    -1.378000000    -1.925000000     0.475000000
C    -0.918000000    -0.168000000    -0.757000000
C    -1.922000000    -0.366000000    -1.770000000
H    -1.671000000    -0.005000000    -2.770000000
H    -2.204000000    -1.411000000    -1.912000000
H    -2.859000000     0.103000000    -1.462000000
C    -0.064000000     0.962000000    -0.974000000
H    -0.258000000     1.723000000    -1.725000000
C     0.955000000     1.111000000    -0.062000000
H     1.595000000     1.979000000    -0.196000000
C     1.162000000     0.162000000     0.992000000
C     2.244000000     0.409000000     1.957000000
O     2.745000000     1.479000000     2.154000000
O     2.688000000    -0.610000000     2.481000000
