17
-93.49734
C     0.867000000    -1.250000000    -0.199000000
H     1.273000000    -2.257000000    -0.246000000
C    -0.483000000    -1.103000000    -0.542000000
H    -1.024000000    -2.022000000    -0.753000000
C    -1.193000000     0.108000000    -0.315000000
C    -2.692000000     0.221000000    -0.439000000
H    -3.025000000     1.228000000    -0.698000000
H    -3.035000000    -0.469000000    -1.213000000
H    -3.105000000    -0.088000000     0.523000000
C    -0.493000000     1.219000000     0.156000000
H    -1.048000000     2.142000000     0.297000000
C     0.875000000     1.109000000     0.332000000
H     1.436000000     1.967000000     0.695000000
C     1.548000000    -0.113000000     0.244000000
C     3.009000000    -0.182000000     0.546000000
O     3.605000000     0.784000000     0.898000000
O     3.478000000    -1.287000000     0.720000000
