17
-98.95717
C     0.632000000    -1.187000000     0.598000000
H     1.012000000    -2.179000000     0.828000000
C    -0.569000000    -1.155000000    -0.108000000
H    -1.187000000    -2.045000000    -0.198000000
C    -1.166000000     0.026000000    -0.538000000
C    -2.297000000     0.039000000    -1.430000000
H    -3.158000000     0.425000000    -0.881000000
H    -2.062000000     0.673000000    -2.288000000
H    -2.476000000    -0.958000000    -1.838000000
C    -0.478000000     1.213000000    -0.195000000
H    -0.855000000     2.179000000    -0.524000000
C     0.711000000     1.194000000     0.484000000
H     1.265000000     2.107000000     0.687000000
C     1.323000000    -0.039000000     0.853000000
C     2.728000000    -0.087000000     1.397000000
O     3.340000000     0.962000000     1.528000000
O     3.243000000    -1.170000000     1.622000000
