17
-101.10987
C     0.554000000    -1.222000000     0.721000000
H     0.834000000    -2.122000000     1.262000000
C    -0.778000000    -0.788000000     0.720000000
H    -1.513000000    -1.301000000     1.335000000
C    -1.196000000     0.345000000    -0.027000000
C    -2.614000000     0.888000000     0.040000000
H    -2.762000000     1.659000000    -0.718000000
H    -3.322000000     0.057000000    -0.003000000
H    -2.900000000     1.326000000     0.998000000
C    -0.256000000     1.070000000    -0.729000000
H    -0.470000000     2.025000000    -1.202000000
C     1.129000000     0.640000000    -0.713000000
H     1.780000000     1.177000000    -1.398000000
C     1.493000000    -0.470000000     0.005000000
C     2.973000000    -0.960000000    -0.076000000
O     3.846000000    -0.134000000    -0.176000000
O     3.208000000    -2.189000000    -0.039000000
