17
-95.18483
C    -0.982000000     0.074000000    -1.072000000
H    -1.597000000     0.270000000    -1.947000000
C     0.122000000    -0.741000000    -1.127000000
H     0.332000000    -1.255000000    -2.061000000
C     0.939000000    -0.756000000    -0.050000000
C     2.232000000    -1.542000000    -0.039000000
H     2.079000000    -2.604000000    -0.247000000
H     2.873000000    -1.157000000    -0.835000000
H     2.746000000    -1.347000000     0.904000000
C     0.654000000    -0.024000000     1.068000000
H     1.413000000     0.095000000     1.837000000
C    -0.484000000     0.682000000     1.146000000
H    -0.735000000     1.258000000     2.034000000
C    -1.317000000     0.827000000     0.083000000
C    -2.464000000     1.809000000     0.111000000
O    -2.747000000     2.488000000     1.136000000
O    -3.056000000     1.931000000    -0.937000000
