17
-97.93637
C     1.397000000    -0.134000000    -0.548000000
H     2.365000000    -0.446000000    -0.931000000
C     0.351000000    -1.152000000    -0.547000000
H     0.571000000    -2.097000000    -1.037000000
C    -0.868000000    -0.867000000     0.028000000
C    -2.031000000    -1.872000000     0.025000000
H    -1.801000000    -2.937000000     0.098000000
H    -2.710000000    -1.657000000     0.854000000
H    -2.550000000    -1.886000000    -0.936000000
C    -1.088000000     0.443000000     0.530000000
H    -2.077000000     0.636000000     0.938000000
C    -0.183000000     1.431000000     0.388000000
H    -0.395000000     2.440000000     0.731000000
C     1.123000000     1.132000000    -0.073000000
C     2.332000000     2.098000000     0.054000000
O     2.137000000     3.276000000    -0.012000000
O     3.419000000     1.584000000     0.431000000
