17
-99.75336
C     1.268000000    -0.020000000    -0.672000000
H     2.182000000    -0.164000000    -1.242000000
C     0.479000000    -1.101000000    -0.455000000
H     0.923000000    -2.045000000    -0.760000000
C    -0.777000000    -0.926000000     0.162000000
C    -1.537000000    -2.177000000     0.569000000
H    -0.939000000    -3.088000000     0.638000000
H    -2.000000000    -2.112000000     1.556000000
H    -2.296000000    -2.375000000    -0.191000000
C    -1.195000000     0.331000000     0.547000000
H    -2.104000000     0.325000000     1.143000000
C    -0.412000000     1.448000000     0.323000000
H    -0.748000000     2.439000000     0.620000000
C     0.883000000     1.269000000    -0.287000000
C     1.813000000     2.445000000    -0.604000000
O     1.659000000     3.523000000    -0.028000000
O     2.803000000     2.229000000    -1.320000000
