17
-95.22527
C    -0.644000000     0.523000000    -1.164000000
H    -0.956000000     0.902000000    -2.134000000
C     0.396000000    -0.409000000    -1.157000000
H     0.756000000    -0.637000000    -2.157000000
C     0.890000000    -0.865000000     0.035000000
C     2.196000000    -1.684000000     0.018000000
H     2.862000000    -1.213000000     0.743000000
H     2.007000000    -2.707000000     0.350000000
H     2.668000000    -1.605000000    -0.964000000
C     0.331000000    -0.437000000     1.209000000
H     0.720000000    -0.854000000     2.134000000
C    -0.784000000     0.368000000     1.206000000
H    -1.291000000     0.627000000     2.132000000
C    -1.228000000     1.011000000    -0.011000000
C    -2.306000000     2.122000000    -0.032000000
O    -2.905000000     2.405000000     0.958000000
O    -2.704000000     2.457000000    -1.169000000
