17
-92.44506
C     0.109000000    -1.080000000    -0.957000000
H    -0.026000000    -1.937000000    -1.612000000
C    -1.102000000    -0.507000000    -0.488000000
H    -2.072000000    -0.875000000    -0.811000000
C    -1.021000000     0.477000000     0.421000000
C    -2.282000000     1.005000000     0.973000000
H    -3.123000000     0.547000000     0.448000000
H    -2.283000000     0.893000000     2.060000000
H    -2.282000000     2.080000000     0.783000000
C     0.202000000     1.090000000     0.770000000
H     0.174000000     1.851000000     1.546000000
C     1.406000000     0.510000000     0.357000000
H     2.373000000     0.921000000     0.636000000
C     1.345000000    -0.562000000    -0.581000000
C     2.554000000    -1.253000000    -1.056000000
O     3.633000000    -0.954000000    -0.678000000
O     2.395000000    -2.207000000    -1.819000000
