17
-90.64713
C     1.464000000    -0.143000000     0.257000000
H     2.479000000    -0.438000000     0.510000000
C     0.609000000    -1.145000000    -0.261000000
H     1.004000000    -2.156000000    -0.307000000
C    -0.733000000    -0.890000000    -0.560000000
C    -1.692000000    -1.866000000    -0.960000000
H    -2.281000000    -2.314000000    -0.157000000
H    -2.460000000    -1.450000000    -1.615000000
H    -1.052000000    -2.609000000    -1.441000000
C    -1.208000000     0.375000000    -0.328000000
H    -2.268000000     0.570000000    -0.468000000
C    -0.416000000     1.438000000     0.205000000
H    -0.774000000     2.436000000     0.447000000
C     0.985000000     1.158000000     0.417000000
C     1.901000000     2.107000000     1.139000000
O     1.403000000     3.136000000     1.581000000
O     3.047000000     1.787000000     1.542000000
