17
-88.21555
C     0.952000000     0.164000000    -1.131000000
H     1.519000000     0.242000000    -2.055000000
C     0.430000000    -1.064000000    -0.675000000
H     0.714000000    -1.969000000    -1.207000000
C    -0.350000000    -1.075000000     0.559000000
C    -0.986000000    -2.397000000     0.942000000
H    -1.613000000    -2.737000000     0.115000000
H    -0.141000000    -3.083000000     1.029000000
H    -1.492000000    -2.349000000     1.908000000
C    -0.548000000     0.118000000     1.231000000
H    -1.041000000     0.101000000     2.200000000
C    -0.126000000     1.337000000     0.706000000
H    -0.466000000     2.248000000     1.191000000
C     0.598000000     1.374000000    -0.480000000
C     0.858000000     2.664000000    -1.225000000
O     0.600000000     3.715000000    -0.715000000
O     1.092000000     2.708000000    -2.396000000
