17
-93.56238
C     1.411000000     0.250000000    -0.606000000
H     2.314000000     0.309000000    -1.209000000
C     0.628000000    -0.908000000    -0.649000000
H     0.986000000    -1.757000000    -1.225000000
C    -0.638000000    -1.035000000    -0.043000000
C    -1.453000000    -2.279000000    -0.067000000
H    -1.183000000    -3.049000000     0.659000000
H    -2.541000000    -2.234000000     0.010000000
H    -1.304000000    -2.786000000    -1.022000000
C    -1.158000000     0.091000000     0.565000000
H    -2.136000000     0.026000000     1.036000000
C    -0.406000000     1.200000000     0.703000000
H    -0.956000000     2.044000000     1.111000000
C     0.901000000     1.306000000     0.072000000
C     1.634000000     2.617000000     0.145000000
O     1.048000000     3.684000000     0.343000000
O     2.845000000     2.527000000     0.171000000
