17
-89.04055
C     1.109000000     0.961000000    -0.258000000
H     1.880000000     1.675000000    -0.535000000
C     1.009000000    -0.291000000    -0.788000000
H     1.816000000    -0.597000000    -1.448000000
C    -0.049000000    -1.148000000    -0.473000000
C    -0.168000000    -2.458000000    -1.174000000
H     0.423000000    -3.203000000    -0.637000000
H    -1.208000000    -2.789000000    -1.212000000
H     0.360000000    -2.341000000    -2.123000000
C    -1.108000000    -0.642000000     0.304000000
H    -1.990000000    -1.224000000     0.558000000
C    -0.966000000     0.552000000     0.951000000
H    -1.775000000     0.873000000     1.601000000
C     0.086000000     1.362000000     0.639000000
C     0.191000000     2.746000000     1.295000000
O    -0.643000000     3.016000000     2.195000000
O     1.035000000     3.513000000     1.098000000
