17
-91.75210
C     0.288000000     0.622000000    -1.328000000
H     0.371000000     0.928000000    -2.368000000
C     0.121000000    -0.701000000    -1.045000000
H     0.079000000    -1.424000000    -1.855000000
C    -0.013000000    -1.193000000     0.273000000
C    -0.176000000    -2.695000000     0.571000000
H     0.735000000    -3.270000000     0.748000000
H    -0.994000000    -2.916000000     1.260000000
H    -0.633000000    -3.095000000    -0.337000000
C    -0.008000000    -0.272000000     1.289000000
H    -0.105000000    -0.714000000     2.277000000
C     0.066000000     1.078000000     0.981000000
H    -0.050000000     1.813000000     1.773000000
C     0.228000000     1.552000000    -0.325000000
C     0.084000000     3.040000000    -0.546000000
O     0.148000000     3.813000000     0.337000000
O    -0.137000000     3.426000000    -1.704000000
