17
-86.39192
C    -0.306000000    -0.726000000    -1.242000000
H    -0.631000000    -1.359000000    -2.064000000
C    -0.155000000    -1.234000000     0.032000000
H    -0.250000000    -2.316000000     0.080000000
C     0.206000000    -0.456000000     1.123000000
C     0.326000000    -1.155000000     2.459000000
H     0.923000000    -0.595000000     3.183000000
H    -0.625000000    -1.133000000     2.994000000
H     0.753000000    -2.159000000     2.445000000
C     0.526000000     0.867000000     0.906000000
H     0.947000000     1.420000000     1.741000000
C     0.215000000     1.381000000    -0.370000000
H     0.423000000     2.434000000    -0.536000000
C    -0.257000000     0.648000000    -1.430000000
C    -0.624000000     1.269000000    -2.740000000
O    -0.476000000     2.447000000    -2.887000000
O    -0.995000000     0.664000000    -3.690000000
