17
-91.81670
C    -1.446000000    -0.153000000    -0.434000000
H    -2.464000000    -0.465000000    -0.654000000
C    -0.490000000    -1.219000000    -0.426000000
H    -0.861000000    -2.210000000    -0.673000000
C     0.782000000    -0.999000000    -0.020000000
C     1.883000000    -1.949000000     0.150000000
H     1.640000000    -2.978000000    -0.123000000
H     2.818000000    -1.685000000    -0.348000000
H     2.142000000    -1.942000000     1.211000000
C     1.117000000     0.321000000     0.298000000
H     2.130000000     0.668000000     0.482000000
C     0.266000000     1.390000000     0.173000000
H     0.673000000     2.367000000     0.419000000
C    -1.096000000     1.166000000    -0.117000000
C    -2.093000000     2.235000000    -0.055000000
O    -1.718000000     3.410000000    -0.015000000
O    -3.291000000     2.041000000     0.135000000
