17
-94.71809
C    -1.425000000    -0.439000000     0.010000000
H    -2.435000000    -0.808000000    -0.148000000
C    -0.511000000    -0.683000000    -1.027000000
H    -0.801000000    -1.211000000    -1.932000000
C     0.824000000    -0.232000000    -0.925000000
C     1.719000000    -0.417000000    -2.081000000
H     2.583000000     0.237000000    -1.944000000
H     2.087000000    -1.445000000    -2.100000000
H     1.242000000    -0.259000000    -3.051000000
C     1.198000000     0.322000000     0.283000000
H     2.207000000     0.721000000     0.336000000
C     0.371000000     0.413000000     1.423000000
H     0.675000000     0.871000000     2.360000000
C    -0.999000000     0.201000000     1.204000000
C    -2.005000000     0.800000000     2.216000000
O    -1.646000000     1.640000000     3.067000000
O    -3.081000000     0.285000000     2.315000000
