17
-94.93073
C     0.332000000     0.038000000     1.437000000
H     0.581000000     0.019000000     2.495000000
C     1.048000000    -0.687000000     0.486000000
H     1.925000000    -1.241000000     0.813000000
C     0.582000000    -0.740000000    -0.853000000
C     1.347000000    -1.405000000    -1.919000000
H     1.985000000    -0.754000000    -2.519000000
H     2.049000000    -2.148000000    -1.533000000
H     0.706000000    -2.000000000    -2.573000000
C    -0.551000000    -0.017000000    -1.190000000
H    -0.808000000     0.089000000    -2.241000000
C    -1.272000000     0.744000000    -0.219000000
H    -2.201000000     1.248000000    -0.474000000
C    -0.784000000     0.880000000     1.112000000
C    -1.400000000     1.784000000     2.089000000
O    -2.183000000     2.660000000     1.763000000
O    -1.348000000     1.529000000     3.323000000
