17
-94.53407
C    -1.191000000    -0.778000000     0.574000000
H    -2.086000000    -1.347000000     0.809000000
C    -0.404000000    -1.143000000    -0.528000000
H    -0.719000000    -2.029000000    -1.075000000
C     0.659000000    -0.349000000    -0.994000000
C     1.429000000    -0.693000000    -2.201000000
H     0.839000000    -1.033000000    -3.054000000
H     2.038000000     0.180000000    -2.446000000
H     2.167000000    -1.437000000    -1.895000000
C     1.093000000     0.683000000    -0.197000000
H     1.833000000     1.391000000    -0.563000000
C     0.356000000     1.069000000     0.943000000
H     0.613000000     1.950000000     1.527000000
C    -0.812000000     0.389000000     1.277000000
C    -1.709000000     0.891000000     2.360000000
O    -1.481000000     2.022000000     2.806000000
O    -2.625000000     0.236000000     2.662000000
