17
-86.71448
C    -1.420000000    -0.311000000     0.534000000
H    -2.367000000    -0.644000000     0.952000000
C    -0.241000000    -1.127000000     0.503000000
H    -0.300000000    -2.162000000     0.830000000
C     0.990000000    -0.778000000    -0.014000000
C     2.168000000    -1.647000000     0.020000000
H     1.789000000    -2.670000000    -0.032000000
H     2.815000000    -1.505000000    -0.848000000
H     2.776000000    -1.374000000     0.885000000
C     1.129000000     0.494000000    -0.418000000
H     2.093000000     0.911000000    -0.697000000
C     0.056000000     1.347000000    -0.491000000
H     0.254000000     2.310000000    -0.955000000
C    -1.202000000     0.954000000    -0.025000000
C    -2.472000000     1.825000000    -0.070000000
O    -2.455000000     3.007000000    -0.306000000
O    -3.607000000     1.362000000     0.136000000
