17
-91.44534
C    -0.904000000     1.165000000     0.169000000
H    -1.618000000     1.981000000     0.087000000
C    -1.024000000     0.199000000    -0.788000000
H    -1.804000000     0.251000000    -1.544000000
C    -0.125000000    -0.891000000    -0.815000000
C    -0.099000000    -1.865000000    -2.034000000
H     0.443000000    -2.811000000    -1.973000000
H    -1.151000000    -2.133000000    -2.160000000
H     0.194000000    -1.225000000    -2.868000000
C     0.897000000    -0.911000000     0.103000000
H     1.624000000    -1.715000000     0.186000000
C     0.996000000    -0.003000000     1.126000000
H     1.760000000    -0.137000000     1.887000000
C     0.062000000     1.026000000     1.167000000
C     0.252000000     2.092000000     2.172000000
O     1.047000000     1.955000000     3.070000000
O    -0.545000000     3.028000000     2.207000000
