17
-95.89099
C    -1.223000000     0.600000000     0.507000000
H    -2.198000000     1.034000000     0.713000000
C    -1.181000000    -0.382000000    -0.499000000
H    -2.044000000    -0.875000000    -0.940000000
C     0.015000000    -0.749000000    -0.955000000
C     0.148000000    -1.766000000    -2.065000000
H    -0.104000000    -2.787000000    -1.773000000
H    -0.458000000    -1.458000000    -2.919000000
H     1.189000000    -1.758000000    -2.396000000
C     1.220000000    -0.269000000    -0.404000000
H     2.212000000    -0.561000000    -0.739000000
C     1.154000000     0.545000000     0.776000000
H     2.007000000     0.893000000     1.352000000
C    -0.095000000     1.054000000     1.142000000
C    -0.182000000     1.934000000     2.365000000
O     0.827000000     2.255000000     3.025000000
O    -1.282000000     2.297000000     2.803000000
