17
-83.26238
C    -1.388000000     0.211000000    -0.664000000
H    -2.397000000     0.121000000    -1.059000000
C    -0.273000000    -0.499000000    -1.278000000
H    -0.334000000    -1.068000000    -2.202000000
C     0.940000000    -0.544000000    -0.643000000
C     2.075000000    -1.376000000    -1.062000000
H     1.734000000    -2.377000000    -1.332000000
H     2.519000000    -0.915000000    -1.947000000
H     2.837000000    -1.500000000    -0.290000000
C     1.090000000     0.081000000     0.589000000
H     1.964000000    -0.224000000     1.160000000
C     0.069000000     0.792000000     1.172000000
H     0.205000000     1.143000000     2.192000000
C    -1.220000000     0.831000000     0.623000000
C    -2.318000000     1.622000000     1.343000000
O    -2.056000000     2.303000000     2.289000000
O    -3.451000000     1.395000000     1.113000000
