17
-91.46520
C    -0.407000000    -0.046000000    -1.434000000
H    -0.581000000    -0.146000000    -2.503000000
C     0.493000000    -0.898000000    -0.765000000
H     1.141000000    -1.600000000    -1.283000000
C     0.763000000    -0.778000000     0.594000000
C     1.952000000    -1.554000000     1.296000000
H     2.078000000    -1.407000000     2.371000000
H     1.892000000    -2.619000000     1.064000000
H     2.881000000    -1.280000000     0.791000000
C     0.019000000     0.206000000     1.290000000
H     0.185000000     0.281000000     2.362000000
C    -0.940000000     1.014000000     0.647000000
H    -1.481000000     1.706000000     1.289000000
C    -1.150000000     0.924000000    -0.735000000
C    -2.111000000     1.766000000    -1.450000000
O    -2.553000000     2.741000000    -0.882000000
O    -2.183000000     1.691000000    -2.660000000
