17
-87.82670
C    -0.184000000     0.975000000     1.072000000
H    -0.449000000     1.643000000     1.888000000
C    -1.078000000    -0.028000000     0.823000000
H    -1.918000000    -0.223000000     1.485000000
C    -0.749000000    -0.904000000    -0.213000000
C    -1.480000000    -2.220000000    -0.380000000
H    -2.571000000    -2.182000000    -0.410000000
H    -1.229000000    -2.543000000    -1.393000000
H    -1.048000000    -2.949000000     0.309000000
C     0.283000000    -0.650000000    -1.093000000
H     0.463000000    -1.367000000    -1.890000000
C     1.152000000     0.381000000    -0.810000000
H     1.939000000     0.633000000    -1.516000000
C     0.868000000     1.282000000     0.262000000
C     1.744000000     2.453000000     0.461000000
O     2.904000000     2.363000000     0.200000000
O     1.346000000     3.332000000     1.204000000
