17
-99.26699
C     0.687000000     0.009000000     1.317000000
H     1.182000000    -0.037000000     2.283000000
C    -0.602000000    -0.540000000     1.038000000
H    -1.174000000    -0.911000000     1.884000000
C    -1.089000000    -0.575000000    -0.240000000
C    -2.549000000    -1.007000000    -0.459000000
H    -2.749000000    -1.154000000    -1.523000000
H    -2.664000000    -1.961000000     0.059000000
H    -3.098000000    -0.214000000     0.052000000
C    -0.364000000    -0.033000000    -1.306000000
H    -0.767000000     0.019000000    -2.314000000
C     0.872000000     0.530000000    -1.026000000
H     1.434000000     1.021000000    -1.816000000
C     1.491000000     0.532000000     0.259000000
C     2.827000000     1.226000000     0.577000000
O     3.563000000     1.258000000    -0.414000000
O     3.004000000     1.841000000     1.632000000
