17
-97.09588
C     1.303000000     0.435000000     0.479000000
H     2.145000000     0.913000000     0.973000000
C     0.100000000     0.494000000     1.185000000
H     0.095000000     0.909000000     2.189000000
C    -1.081000000     0.128000000     0.603000000
C    -2.359000000     0.108000000     1.381000000
H    -3.227000000     0.162000000     0.721000000
H    -2.529000000    -0.840000000     1.895000000
H    -2.281000000     0.936000000     2.089000000
C    -0.992000000    -0.512000000    -0.622000000
H    -1.928000000    -0.834000000    -1.072000000
C     0.226000000    -0.610000000    -1.308000000
H     0.185000000    -1.095000000    -2.279000000
C     1.370000000    -0.063000000    -0.815000000
C     2.653000000    -0.064000000    -1.599000000
O     2.640000000    -0.161000000    -2.834000000
O     3.672000000     0.102000000    -0.985000000
