17
-98.82645
C     0.887000000     0.683000000    -1.041000000
H     1.459000000     1.309000000    -1.721000000
C     0.587000000     1.145000000     0.251000000
H     1.007000000     2.076000000     0.622000000
C    -0.234000000     0.381000000     1.150000000
C    -0.720000000     0.893000000     2.497000000
H    -1.477000000     0.288000000     3.001000000
H     0.119000000     1.016000000     3.185000000
H    -1.163000000     1.865000000     2.273000000
C    -0.714000000    -0.802000000     0.729000000
H    -1.395000000    -1.376000000     1.351000000
C    -0.361000000    -1.318000000    -0.543000000
H    -0.855000000    -2.204000000    -0.934000000
C     0.452000000    -0.563000000    -1.400000000
C     0.730000000    -1.000000000    -2.805000000
O     0.068000000    -1.953000000    -3.199000000
O     1.607000000    -0.441000000    -3.416000000
