17
-93.82744
C     1.356000000     0.409000000     0.236000000
H     2.310000000     0.829000000     0.542000000
C     0.290000000     0.337000000     1.182000000
H     0.429000000     0.648000000     2.214000000
C    -0.993000000     0.014000000     0.792000000
C    -2.046000000     0.011000000     1.866000000
H    -2.940000000     0.474000000     1.443000000
H    -2.235000000    -0.970000000     2.308000000
H    -1.799000000     0.770000000     2.611000000
C    -1.168000000    -0.507000000    -0.512000000
H    -2.118000000    -0.887000000    -0.881000000
C    -0.024000000    -0.568000000    -1.369000000
H    -0.216000000    -0.956000000    -2.366000000
C     1.210000000     0.035000000    -1.070000000
C     2.341000000     0.176000000    -2.076000000
O     2.121000000    -0.026000000    -3.261000000
O     3.479000000     0.205000000    -1.661000000
