17
-91.09611
C    -0.066000000    -0.449000000    -1.422000000
H    -0.019000000    -0.664000000    -2.486000000
C    -0.650000000     0.740000000    -0.937000000
H    -1.239000000     1.413000000    -1.556000000
C    -0.548000000     1.034000000     0.447000000
C    -1.053000000     2.324000000     0.927000000
H    -0.212000000     2.999000000     1.101000000
H    -1.704000000     2.807000000     0.195000000
H    -1.515000000     2.138000000     1.899000000
C     0.106000000     0.174000000     1.267000000
H     0.165000000     0.309000000     2.344000000
C     0.601000000    -1.050000000     0.812000000
H     0.948000000    -1.833000000     1.481000000
C     0.661000000    -1.318000000    -0.567000000
C     1.273000000    -2.601000000    -0.980000000
O     2.304000000    -3.001000000    -0.465000000
O     0.941000000    -3.014000000    -2.062000000
