17
-90.98600
C     0.985000000     0.543000000    -0.945000000
H     1.690000000     1.013000000    -1.626000000
C     0.231000000     1.343000000    -0.093000000
H     0.403000000     2.414000000    -0.163000000
C    -0.714000000     0.720000000     0.738000000
C    -1.484000000     1.516000000     1.806000000
H    -2.562000000     1.600000000     1.655000000
H    -1.459000000     0.846000000     2.668000000
H    -0.896000000     2.423000000     1.962000000
C    -0.754000000    -0.617000000     0.745000000
H    -1.415000000    -1.154000000     1.420000000
C    -0.068000000    -1.442000000    -0.153000000
H    -0.322000000    -2.496000000    -0.220000000
C     0.891000000    -0.862000000    -0.962000000
C     1.688000000    -1.743000000    -1.957000000
O     1.636000000    -2.924000000    -1.904000000
O     2.147000000    -1.175000000    -2.966000000
