17
-94.37495
C    -0.281000000    -0.662000000    -1.329000000
H    -0.606000000    -1.044000000    -2.293000000
C    -1.106000000     0.194000000    -0.637000000
H    -2.077000000     0.449000000    -1.054000000
C    -0.782000000     0.792000000     0.651000000
C    -1.483000000     1.916000000     1.254000000
H    -2.544000000     1.868000000     0.998000000
H    -1.465000000     1.921000000     2.345000000
H    -1.082000000     2.873000000     0.913000000
C     0.452000000     0.413000000     1.182000000
H     0.777000000     0.969000000     2.058000000
C     1.267000000    -0.468000000     0.488000000
H     2.232000000    -0.706000000     0.929000000
C     0.902000000    -1.109000000    -0.735000000
C     1.727000000    -2.156000000    -1.451000000
O     2.785000000    -2.445000000    -0.942000000
O     1.286000000    -2.803000000    -2.379000000
