17
-94.00064
C     0.139000000    -0.093000000    -1.455000000
H     0.006000000    -0.374000000    -2.496000000
C    -0.828000000     0.723000000    -0.817000000
H    -1.618000000     1.140000000    -1.437000000
C    -0.799000000     0.791000000     0.580000000
C    -1.683000000     1.686000000     1.368000000
H    -1.128000000     2.467000000     1.893000000
H    -2.376000000     2.125000000     0.648000000
H    -2.156000000     1.205000000     2.226000000
C     0.089000000     0.029000000     1.290000000
H     0.110000000    -0.090000000     2.371000000
C     0.975000000    -0.828000000     0.627000000
H     1.619000000    -1.452000000     1.241000000
C     1.010000000    -0.901000000    -0.776000000
C     1.926000000    -1.942000000    -1.533000000
O     2.896000000    -2.459000000    -0.977000000
O     1.825000000    -2.032000000    -2.755000000
