17
-94.86329
C    -0.232000000     0.824000000    -1.148000000
H    -0.421000000     1.542000000    -1.942000000
C    -0.466000000     1.176000000     0.139000000
H    -0.984000000     2.125000000     0.251000000
C    -0.160000000     0.321000000     1.196000000
C    -0.582000000     0.724000000     2.578000000
H    -1.023000000    -0.049000000     3.211000000
H     0.232000000     1.156000000     3.164000000
H    -1.338000000     1.500000000     2.448000000
C     0.356000000    -0.946000000     0.890000000
H     0.693000000    -1.566000000     1.716000000
C     0.629000000    -1.310000000    -0.427000000
H     1.110000000    -2.274000000    -0.573000000
C     0.355000000    -0.419000000    -1.487000000
C     0.594000000    -0.818000000    -2.922000000
O     1.050000000    -1.899000000    -3.306000000
O     0.182000000    -0.079000000    -3.785000000
