17
-94.16714
C    -0.127000000     0.137000000    -1.451000000
H    -0.357000000     0.329000000    -2.496000000
C    -0.526000000     1.124000000    -0.534000000
H    -0.913000000     2.073000000    -0.896000000
C    -0.337000000     0.860000000     0.866000000
C    -0.853000000     1.761000000     1.930000000
H    -0.516000000     2.786000000     1.761000000
H    -1.943000000     1.733000000     1.869000000
H    -0.498000000     1.461000000     2.918000000
C     0.286000000    -0.315000000     1.262000000
H     0.306000000    -0.550000000     2.324000000
C     0.657000000    -1.275000000     0.297000000
H     1.029000000    -2.254000000     0.589000000
C     0.513000000    -1.029000000    -1.097000000
C     0.985000000    -2.014000000    -2.189000000
O     1.361000000    -3.133000000    -1.860000000
O     0.927000000    -1.693000000    -3.301000000
