17
-94.64737
C    -0.099000000     0.293000000    -1.392000000
H    -0.218000000     0.628000000    -2.419000000
C    -0.625000000     1.102000000    -0.443000000
H    -1.183000000     2.026000000    -0.577000000
C    -0.459000000     0.686000000     0.885000000
C    -1.210000000     1.377000000     1.988000000
H    -0.718000000     1.164000000     2.940000000
H    -1.215000000     2.454000000     1.810000000
H    -2.295000000     1.259000000     1.952000000
C     0.348000000    -0.465000000     1.193000000
H     0.600000000    -0.770000000     2.205000000
C     0.919000000    -1.169000000     0.190000000
H     1.507000000    -2.066000000     0.364000000
C     0.638000000    -0.821000000    -1.101000000
C     1.213000000    -1.662000000    -2.249000000
O     2.106000000    -2.466000000    -2.006000000
O     0.688000000    -1.574000000    -3.332000000
