17
-96.44161
C    -1.165000000    -0.654000000    -0.670000000
H    -2.073000000    -0.984000000    -1.169000000
C    -1.216000000     0.422000000     0.264000000
H    -2.157000000     0.924000000     0.475000000
C    -0.045000000     0.942000000     0.797000000
C    -0.021000000     2.179000000     1.686000000
H    -0.600000000     2.938000000     1.155000000
H    -0.713000000     1.944000000     2.498000000
H     0.973000000     2.502000000     2.004000000
C     1.191000000     0.454000000     0.368000000
H     2.158000000     0.676000000     0.813000000
C     1.197000000    -0.656000000    -0.440000000
H     2.171000000    -1.095000000    -0.640000000
C     0.065000000    -1.190000000    -1.067000000
C     0.066000000    -2.467000000    -1.842000000
O     1.128000000    -3.066000000    -1.850000000
O    -0.955000000    -2.871000000    -2.386000000
