17
-92.75264
C    -1.366000000    -0.520000000    -0.480000000
H    -2.283000000    -0.763000000    -1.011000000
C    -1.218000000     0.710000000     0.102000000
H    -2.057000000     1.400000000     0.057000000
C     0.075000000     1.098000000     0.587000000
C     0.357000000     2.336000000     1.303000000
H    -0.404000000     2.580000000     2.046000000
H     1.302000000     2.256000000     1.844000000
H     0.519000000     3.108000000     0.548000000
C     1.114000000     0.249000000     0.390000000
H     2.131000000     0.594000000     0.560000000
C     1.017000000    -0.968000000    -0.229000000
H     1.911000000    -1.504000000    -0.535000000
C    -0.262000000    -1.416000000    -0.586000000
C    -0.312000000    -2.738000000    -1.304000000
O     0.576000000    -3.551000000    -1.088000000
O    -1.093000000    -2.873000000    -2.209000000
