17
-95.81568
C    -1.320000000    -0.327000000     0.413000000
H    -2.204000000    -0.679000000     0.937000000
C    -0.499000000     0.582000000     1.060000000
H    -0.794000000     1.092000000     1.973000000
C     0.769000000     0.880000000     0.554000000
C     1.678000000     1.720000000     1.297000000
H     1.668000000     2.738000000     0.902000000
H     1.439000000     1.819000000     2.358000000
H     2.685000000     1.309000000     1.194000000
C     1.099000000     0.171000000    -0.609000000
H     2.089000000     0.432000000    -0.976000000
C     0.253000000    -0.720000000    -1.293000000
H     0.528000000    -1.143000000    -2.256000000
C    -0.977000000    -0.989000000    -0.775000000
C    -1.901000000    -1.984000000    -1.471000000
O    -1.396000000    -2.939000000    -2.028000000
O    -3.121000000    -1.968000000    -1.272000000
