17
-87.35993
C    -1.394000000     0.067000000     0.510000000
H    -2.401000000     0.322000000     0.832000000
C    -0.495000000     1.147000000     0.456000000
H    -0.819000000     2.063000000     0.943000000
C     0.837000000     0.908000000     0.028000000
C     1.894000000     1.963000000     0.112000000
H     1.418000000     2.943000000     0.191000000
H     2.709000000     1.782000000     0.817000000
H     2.330000000     1.939000000    -0.889000000
C     1.231000000    -0.335000000    -0.409000000
H     2.268000000    -0.555000000    -0.649000000
C     0.231000000    -1.314000000    -0.483000000
H     0.571000000    -2.279000000    -0.849000000
C    -1.072000000    -1.154000000    -0.057000000
C    -2.144000000    -2.179000000    -0.152000000
O    -1.868000000    -3.317000000    -0.500000000
O    -3.294000000    -2.008000000     0.103000000
