17
-83.20949
C    -1.359000000    -0.630000000     0.108000000
H    -2.318000000    -1.136000000     0.186000000
C    -0.943000000     0.429000000     0.868000000
H    -1.550000000     0.897000000     1.638000000
C     0.264000000     1.002000000     0.644000000
C     0.779000000     2.098000000     1.512000000
H     0.811000000     1.802000000     2.562000000
H     1.820000000     2.275000000     1.233000000
H     0.266000000     3.038000000     1.294000000
C     1.131000000     0.537000000    -0.346000000
H     2.134000000     0.902000000    -0.551000000
C     0.752000000    -0.598000000    -1.047000000
H     1.391000000    -0.988000000    -1.835000000
C    -0.483000000    -1.191000000    -0.825000000
C    -0.791000000    -2.481000000    -1.618000000
O    -0.002000000    -3.040000000    -2.230000000
O    -1.908000000    -2.915000000    -1.585000000
