17
-94.94562
C    -0.885000000    -0.243000000     1.202000000
H    -1.422000000    -0.347000000     2.141000000
C    -0.186000000     0.943000000     0.896000000
H    -0.265000000     1.758000000     1.610000000
C     0.638000000     1.039000000    -0.275000000
C     1.442000000     2.269000000    -0.427000000
H     0.952000000     2.844000000    -1.216000000
H     1.382000000     2.930000000     0.440000000
H     2.462000000     1.920000000    -0.601000000
C     0.630000000     0.038000000    -1.192000000
H     1.280000000     0.065000000    -2.064000000
C    -0.046000000    -1.155000000    -0.897000000
H     0.158000000    -1.949000000    -1.611000000
C    -0.823000000    -1.314000000     0.278000000
C    -1.576000000    -2.615000000     0.509000000
O    -1.544000000    -3.493000000    -0.309000000
O    -2.205000000    -2.697000000     1.523000000
