17
-87.45181
C    -1.461000000    -0.073000000     0.169000000
H    -2.502000000     0.012000000     0.472000000
C    -0.755000000     1.100000000     0.048000000
H    -1.363000000     1.998000000     0.127000000
C     0.624000000     1.023000000    -0.178000000
C     1.474000000     2.258000000    -0.030000000
H     2.109000000     2.239000000     0.858000000
H     2.062000000     2.408000000    -0.938000000
H     0.875000000     3.157000000     0.131000000
C     1.227000000    -0.200000000    -0.397000000
H     2.286000000    -0.223000000    -0.639000000
C     0.535000000    -1.396000000    -0.247000000
H     0.997000000    -2.371000000    -0.379000000
C    -0.797000000    -1.283000000     0.133000000
C    -1.580000000    -2.537000000     0.244000000
O    -0.974000000    -3.530000000     0.471000000
O    -2.757000000    -2.574000000     0.162000000
