17
-92.26949
C    -1.126000000    -0.809000000    -0.576000000
H    -2.008000000    -1.357000000    -0.900000000
C    -1.179000000     0.529000000    -0.198000000
H    -2.090000000     1.119000000    -0.257000000
C    -0.096000000     1.220000000     0.361000000
C    -0.215000000     2.620000000     0.770000000
H     0.150000000     3.174000000    -0.097000000
H    -1.218000000     2.841000000     1.141000000
H     0.446000000     2.801000000     1.621000000
C     1.066000000     0.549000000     0.499000000
H     1.943000000     0.975000000     0.978000000
C     1.188000000    -0.802000000     0.134000000
H     2.169000000    -1.268000000     0.182000000
C     0.139000000    -1.502000000    -0.474000000
C     0.263000000    -2.952000000    -0.947000000
O     1.251000000    -3.634000000    -0.773000000
O    -0.683000000    -3.506000000    -1.457000000
