17
-86.89391
C    -0.921000000    -0.609000000     0.955000000
H    -1.669000000    -0.990000000     1.644000000
C    -0.458000000     0.680000000     1.045000000
H    -0.995000000     1.355000000     1.706000000
C     0.489000000     1.131000000     0.149000000
C     0.889000000     2.548000000     0.055000000
H     1.981000000     2.565000000     0.073000000
H     0.556000000     2.900000000    -0.924000000
H     0.444000000     3.123000000     0.870000000
C     0.925000000     0.314000000    -0.891000000
H     1.464000000     0.814000000    -1.691000000
C     0.392000000    -0.978000000    -1.042000000
H     0.855000000    -1.685000000    -1.725000000
C    -0.495000000    -1.469000000    -0.039000000
C    -1.000000000    -2.866000000    -0.022000000
O    -0.740000000    -3.559000000    -0.977000000
O    -1.720000000    -3.281000000     0.813000000
