17
-96.67763
C    -1.211000000    -0.630000000    -0.576000000
H    -2.203000000    -0.958000000    -0.879000000
C    -1.072000000     0.742000000    -0.167000000
H    -1.921000000     1.419000000    -0.223000000
C     0.203000000     1.204000000     0.241000000
C     0.302000000     2.639000000     0.676000000
H     0.591000000     3.337000000    -0.113000000
H    -0.653000000     2.907000000     1.134000000
H     1.017000000     2.843000000     1.475000000
C     1.226000000     0.287000000     0.389000000
H     2.179000000     0.560000000     0.835000000
C     1.077000000    -1.043000000     0.020000000
H     1.893000000    -1.697000000     0.319000000
C    -0.124000000    -1.491000000    -0.584000000
C    -0.410000000    -2.974000000    -0.764000000
O     0.582000000    -3.711000000    -0.673000000
O    -1.482000000    -3.442000000    -1.116000000
