17
-83.91350
C    -0.934000000    -0.479000000    -1.022000000
H    -1.571000000    -0.834000000    -1.829000000
C    -0.989000000     0.748000000    -0.419000000
H    -1.728000000     1.445000000    -0.805000000
C    -0.138000000     1.083000000     0.689000000
C    -0.092000000     2.426000000     1.207000000
H    -1.075000000     2.819000000     1.475000000
H     0.625000000     2.650000000     1.999000000
H     0.284000000     3.060000000     0.401000000
C     0.809000000     0.188000000     1.030000000
H     1.438000000     0.292000000     1.910000000
C     0.862000000    -1.059000000     0.373000000
H     1.401000000    -1.912000000     0.777000000
C    -0.006000000    -1.431000000    -0.630000000
C     0.216000000    -2.710000000    -1.434000000
O     1.155000000    -3.381000000    -1.145000000
O    -0.256000000    -2.905000000    -2.583000000
