17
-96.27201
C     0.933000000     0.346000000    -1.161000000
H     1.702000000     0.559000000    -1.900000000
C     1.296000000    -0.080000000     0.115000000
H     2.323000000    -0.291000000     0.404000000
C     0.286000000    -0.389000000     1.119000000
C     0.715000000    -0.836000000     2.469000000
H     1.487000000    -0.187000000     2.888000000
H    -0.149000000    -0.813000000     3.136000000
H     1.215000000    -1.805000000     2.405000000
C    -0.979000000    -0.116000000     0.847000000
H    -1.738000000    -0.324000000     1.597000000
C    -1.350000000     0.248000000    -0.414000000
H    -2.416000000     0.407000000    -0.556000000
C    -0.428000000     0.431000000    -1.441000000
C    -0.844000000     0.822000000    -2.816000000
O    -2.067000000     0.861000000    -3.094000000
O     0.011000000     1.172000000    -3.605000000
