17
-91.09339
C    -1.330000000    -0.019000000    -0.585000000
H    -2.340000000     0.033000000    -0.983000000
C    -1.010000000     0.108000000     0.760000000
H    -1.772000000     0.066000000     1.535000000
C     0.271000000     0.182000000     1.169000000
C     0.491000000     0.219000000     2.691000000
H     1.559000000     0.249000000     2.913000000
H     0.246000000     1.203000000     3.097000000
H    -0.045000000    -0.573000000     3.218000000
C     1.268000000    -0.092000000     0.237000000
H     2.280000000    -0.084000000     0.633000000
C     1.031000000    -0.315000000    -1.108000000
H     1.859000000    -0.505000000    -1.786000000
C    -0.317000000    -0.183000000    -1.536000000
C    -0.641000000    -0.095000000    -2.998000000
O     0.235000000    -0.140000000    -3.886000000
O    -1.781000000    -0.054000000    -3.374000000
