17
-96.00277
C    -0.928000000     1.216000000    -0.014000000
H    -1.645000000     2.030000000     0.059000000
C    -0.234000000     0.705000000     1.059000000
H    -0.326000000     1.120000000     2.059000000
C     0.666000000    -0.403000000     0.945000000
C     1.445000000    -0.941000000     2.151000000
H     1.826000000    -0.065000000     2.681000000
H     0.827000000    -1.495000000     2.861000000
H     2.264000000    -1.591000000     1.837000000
C     0.831000000    -1.054000000    -0.296000000
H     1.554000000    -1.864000000    -0.349000000
C     0.153000000    -0.521000000    -1.399000000
H     0.298000000    -0.962000000    -2.382000000
C    -0.765000000     0.548000000    -1.267000000
C    -1.717000000     1.062000000    -2.365000000
O    -1.487000000     0.593000000    -3.457000000
O    -2.756000000     1.626000000    -2.128000000
