17
-98.24146
C    -1.370000000    -0.118000000     0.681000000
H    -2.239000000    -0.289000000     1.311000000
C    -0.528000000    -1.168000000     0.349000000
H    -0.690000000    -2.170000000     0.739000000
C     0.682000000    -0.996000000    -0.286000000
C     1.635000000    -2.158000000    -0.446000000
H     1.232000000    -3.150000000    -0.231000000
H     1.864000000    -2.225000000    -1.511000000
H     2.479000000    -1.899000000     0.197000000
C     1.041000000     0.297000000    -0.776000000
H     2.013000000     0.476000000    -1.229000000
C     0.200000000     1.349000000    -0.467000000
H     0.443000000     2.384000000    -0.693000000
C    -0.969000000     1.165000000     0.260000000
C    -1.757000000     2.490000000     0.618000000
O    -1.440000000     3.483000000    -0.001000000
O    -2.604000000     2.522000000     1.484000000
