17
-82.79395
C    -1.242000000    -0.325000000     0.727000000
H    -2.166000000    -0.676000000     1.180000000
C    -0.396000000    -1.289000000     0.188000000
H    -0.574000000    -2.360000000     0.231000000
C     0.783000000    -0.814000000    -0.442000000
C     1.714000000    -1.757000000    -1.082000000
H     2.183000000    -2.388000000    -0.324000000
H     1.125000000    -2.319000000    -1.810000000
H     2.513000000    -1.289000000    -1.660000000
C     1.112000000     0.522000000    -0.544000000
H     2.045000000     0.779000000    -1.040000000
C     0.237000000     1.452000000    -0.005000000
H     0.392000000     2.510000000    -0.200000000
C    -1.014000000     1.092000000     0.614000000
C    -2.035000000     2.089000000     1.102000000
O    -1.670000000     3.159000000     1.375000000
O    -3.005000000     1.620000000     1.689000000
