17
-98.80360
C    -0.999000000    -0.142000000     1.151000000
H    -1.719000000    -0.339000000     1.942000000
C    -0.114000000    -1.151000000     0.733000000
H     0.001000000    -2.074000000     1.295000000
C     0.733000000    -0.938000000    -0.386000000
C     1.667000000    -1.972000000    -0.915000000
H     2.255000000    -1.474000000    -1.689000000
H     2.211000000    -2.535000000    -0.154000000
H     1.019000000    -2.716000000    -1.382000000
C     0.725000000     0.309000000    -1.013000000
H     1.329000000     0.563000000    -1.880000000
C    -0.130000000     1.326000000    -0.578000000
H    -0.041000000     2.291000000    -1.069000000
C    -0.953000000     1.104000000     0.530000000
C    -1.803000000     2.231000000     1.011000000
O    -1.733000000     3.313000000     0.373000000
O    -2.453000000     2.199000000     2.026000000
