17
-89.26247
C    -0.918000000    -0.185000000     1.166000000
H    -1.469000000    -0.290000000     2.097000000
C     0.163000000    -1.018000000     0.829000000
H     0.276000000    -1.853000000     1.515000000
C     0.953000000    -0.769000000    -0.241000000
C     2.163000000    -1.646000000    -0.624000000
H     2.174000000    -2.009000000    -1.654000000
H     3.062000000    -1.034000000    -0.524000000
H     2.261000000    -2.434000000     0.125000000
C     0.615000000     0.335000000    -1.030000000
H     1.319000000     0.429000000    -1.853000000
C    -0.477000000     1.204000000    -0.775000000
H    -0.709000000     2.080000000    -1.375000000
C    -1.252000000     0.933000000     0.326000000
C    -2.344000000     1.920000000     0.622000000
O    -2.738000000     2.763000000    -0.150000000
O    -3.073000000     1.573000000     1.539000000
