17
-99.07748
C    -1.120000000     0.258000000     0.962000000
H    -1.877000000     0.265000000     1.742000000
C    -0.080000000    -0.650000000     1.097000000
H     0.078000000    -1.236000000     1.998000000
C     0.907000000    -0.774000000     0.174000000
C     2.112000000    -1.629000000     0.411000000
H     2.650000000    -1.164000000     1.240000000
H     1.913000000    -2.660000000     0.711000000
H     2.782000000    -1.705000000    -0.447000000
C     0.854000000    -0.029000000    -0.983000000
H     1.665000000    -0.174000000    -1.692000000
C    -0.156000000     0.891000000    -1.231000000
H    -0.267000000     1.517000000    -2.113000000
C    -1.202000000     0.930000000    -0.298000000
C    -2.423000000     1.808000000    -0.483000000
O    -2.606000000     2.432000000    -1.547000000
O    -3.233000000     1.912000000     0.459000000
