17
-97.90054
C    -0.206000000     0.808000000    -1.219000000
H    -0.235000000     1.230000000    -2.220000000
C     0.818000000    -0.191000000    -1.020000000
H     1.419000000    -0.509000000    -1.868000000
C     0.897000000    -0.867000000     0.218000000
C     1.818000000    -2.101000000     0.346000000
H     1.343000000    -3.023000000     0.689000000
H     2.255000000    -2.402000000    -0.608000000
H     2.669000000    -1.827000000     0.973000000
C     0.097000000    -0.384000000     1.296000000
H     0.215000000    -0.898000000     2.247000000
C    -0.893000000     0.652000000     1.122000000
H    -1.623000000     0.923000000     1.880000000
C    -1.078000000     1.211000000    -0.175000000
C    -2.208000000     2.203000000    -0.476000000
O    -2.934000000     2.555000000     0.436000000
O    -2.350000000     2.613000000    -1.622000000
