17
-93.42297
C    -1.253000000     0.550000000    -0.531000000
H    -2.040000000     1.024000000    -1.112000000
C     0.008000000     0.436000000    -1.214000000
H     0.055000000     0.830000000    -2.226000000
C     1.045000000    -0.116000000    -0.599000000
C     2.470000000    -0.081000000    -1.163000000
H     3.269000000    -0.224000000    -0.432000000
H     2.479000000    -0.762000000    -2.017000000
H     2.684000000     0.899000000    -1.595000000
C     0.924000000    -0.644000000     0.676000000
H     1.695000000    -1.240000000     1.157000000
C    -0.262000000    -0.536000000     1.384000000
H    -0.392000000    -1.213000000     2.224000000
C    -1.382000000     0.065000000     0.759000000
C    -2.745000000     0.255000000     1.407000000
O    -2.959000000     0.122000000     2.634000000
O    -3.600000000     0.641000000     0.641000000
