17
-96.77110
C    -1.132000000     0.480000000    -0.795000000
H    -1.857000000     0.803000000    -1.537000000
C     0.048000000    -0.081000000    -1.276000000
H     0.117000000    -0.223000000    -2.351000000
C     1.039000000    -0.497000000    -0.448000000
C     2.282000000    -1.053000000    -1.040000000
H     3.167000000    -0.556000000    -0.636000000
H     2.417000000    -2.093000000    -0.736000000
H     2.340000000    -0.932000000    -2.123000000
C     0.857000000    -0.378000000     0.953000000
H     1.627000000    -0.595000000     1.688000000
C    -0.338000000     0.138000000     1.406000000
H    -0.531000000     0.129000000     2.475000000
C    -1.300000000     0.726000000     0.576000000
C    -2.536000000     1.292000000     1.131000000
O    -2.785000000     1.159000000     2.329000000
O    -3.410000000     1.687000000     0.380000000
