17
-89.27481
C    -1.106000000     0.487000000    -0.862000000
H    -1.875000000     0.665000000    -1.610000000
C    -0.036000000    -0.327000000    -1.311000000
H    -0.060000000    -0.849000000    -2.264000000
C     0.947000000    -0.677000000    -0.412000000
C     2.077000000    -1.582000000    -0.762000000
H     2.093000000    -2.503000000    -0.176000000
H     1.788000000    -1.921000000    -1.759000000
H     3.056000000    -1.132000000    -0.941000000
C     0.911000000    -0.250000000     0.917000000
H     1.662000000    -0.468000000     1.672000000
C    -0.195000000     0.546000000     1.339000000
H    -0.315000000     0.680000000     2.411000000
C    -1.206000000     0.972000000     0.464000000
C    -2.236000000     1.944000000     0.911000000
O    -2.225000000     2.241000000     2.094000000
O    -3.272000000     2.176000000     0.282000000
