17
-85.76583
C    -1.070000000     0.625000000    -0.723000000
H    -1.878000000     0.915000000    -1.388000000
C    -0.414000000    -0.584000000    -1.088000000
H    -0.841000000    -1.102000000    -1.943000000
C     0.661000000    -1.026000000    -0.330000000
C     1.264000000    -2.446000000    -0.425000000
H     0.868000000    -3.081000000     0.371000000
H     0.996000000    -2.902000000    -1.380000000
H     2.353000000    -2.483000000    -0.361000000
C     1.022000000    -0.276000000     0.768000000
H     1.793000000    -0.750000000     1.370000000
C     0.338000000     0.943000000     1.039000000
H     0.657000000     1.599000000     1.845000000
C    -0.665000000     1.438000000     0.254000000
C    -1.424000000     2.749000000     0.536000000
O    -1.395000000     3.208000000     1.661000000
O    -2.257000000     3.174000000    -0.206000000
