17
-92.23511
C    -0.560000000     0.946000000    -0.981000000
H    -0.959000000     1.463000000    -1.850000000
C    -0.865000000    -0.424000000    -0.828000000
H    -1.563000000    -0.876000000    -1.528000000
C    -0.212000000    -1.193000000     0.156000000
C    -0.508000000    -2.710000000     0.199000000
H    -1.207000000    -2.974000000    -0.597000000
H     0.383000000    -3.298000000    -0.031000000
H    -0.938000000    -3.104000000     1.123000000
C     0.640000000    -0.582000000     1.041000000
H     1.160000000    -1.206000000     1.764000000
C     0.933000000     0.799000000     0.859000000
H     1.704000000     1.309000000     1.432000000
C     0.249000000     1.602000000    -0.086000000
C     0.512000000     3.028000000    -0.196000000
O     1.419000000     3.492000000     0.416000000
O    -0.187000000     3.724000000    -0.891000000
