17
-91.94005
C     0.561000000     0.474000000    -1.299000000
H     0.995000000     0.724000000    -2.264000000
C    -0.022000000    -0.771000000    -1.044000000
H    -0.243000000    -1.412000000    -1.894000000
C    -0.455000000    -1.113000000     0.233000000
C    -0.820000000    -2.545000000     0.439000000
H    -0.667000000    -2.904000000     1.459000000
H    -1.888000000    -2.652000000     0.241000000
H    -0.206000000    -3.274000000    -0.096000000
C    -0.428000000    -0.203000000     1.265000000
H    -0.819000000    -0.377000000     2.264000000
C     0.181000000     1.048000000     1.007000000
H     0.194000000     1.749000000     1.838000000
C     0.607000000     1.458000000    -0.300000000
C     0.880000000     2.909000000    -0.546000000
O     1.271000000     3.609000000     0.360000000
O     0.854000000     3.281000000    -1.669000000
