17
-95.11941
C    -1.266000000     0.255000000    -0.831000000
H    -2.051000000     0.373000000    -1.575000000
C    -0.271000000    -0.727000000    -1.099000000
H    -0.388000000    -1.343000000    -1.987000000
C     0.808000000    -0.991000000    -0.220000000
C     1.924000000    -1.892000000    -0.561000000
H     2.316000000    -2.568000000     0.202000000
H     1.608000000    -2.390000000    -1.479000000
H     2.767000000    -1.255000000    -0.837000000
C     0.831000000    -0.230000000     0.955000000
H     1.589000000    -0.374000000     1.720000000
C    -0.068000000     0.772000000     1.208000000
H     0.094000000     1.319000000     2.133000000
C    -1.173000000     1.093000000     0.351000000
C    -2.028000000     2.302000000     0.647000000
O    -1.638000000     3.197000000     1.384000000
O    -3.062000000     2.467000000    -0.015000000
