17
-98.98966
C    -1.147000000     0.770000000     0.417000000
H    -1.945000000     1.393000000     0.812000000
C    -0.093000000     0.381000000     1.234000000
H    -0.178000000     0.631000000     2.288000000
C     0.990000000    -0.287000000     0.702000000
C     2.106000000    -0.760000000     1.602000000
H     2.613000000    -1.609000000     1.139000000
H     2.834000000     0.023000000     1.822000000
H     1.714000000    -1.040000000     2.582000000
C     0.920000000    -0.701000000    -0.633000000
H     1.832000000    -1.130000000    -1.040000000
C    -0.172000000    -0.326000000    -1.468000000
H    -0.196000000    -0.631000000    -2.511000000
C    -1.189000000     0.512000000    -0.972000000
C    -2.379000000     0.838000000    -1.774000000
O    -2.700000000     0.114000000    -2.738000000
O    -3.005000000     1.817000000    -1.464000000
