17
-95.83393
C     0.585000000    -1.323000000    -0.003000000
H     1.028000000    -2.301000000    -0.169000000
C     0.758000000    -0.375000000    -0.950000000
H     1.489000000    -0.459000000    -1.750000000
C     0.149000000     0.842000000    -0.831000000
C     0.402000000     1.939000000    -1.891000000
H    -0.378000000     2.143000000    -2.628000000
H     0.719000000     2.863000000    -1.403000000
H     1.259000000     1.628000000    -2.492000000
C    -0.693000000     1.062000000     0.194000000
H    -1.234000000     1.997000000     0.321000000
C    -0.904000000     0.100000000     1.187000000
H    -1.602000000     0.163000000     2.018000000
C    -0.187000000    -1.102000000     1.100000000
C    -0.389000000    -2.123000000     2.170000000
O    -1.183000000    -1.861000000     3.068000000
O     0.178000000    -3.192000000     2.055000000
