17
-95.19770
C    -0.426000000     1.366000000     0.342000000
H    -0.851000000     2.355000000     0.489000000
C    -1.216000000     0.222000000     0.306000000
H    -2.231000000     0.348000000     0.676000000
C    -0.705000000    -1.048000000     0.064000000
C    -1.605000000    -2.224000000    -0.097000000
H    -2.336000000    -2.158000000     0.710000000
H    -2.069000000    -2.220000000    -1.086000000
H    -1.056000000    -3.159000000     0.035000000
C     0.672000000    -1.134000000    -0.176000000
H     1.063000000    -2.145000000    -0.254000000
C     1.497000000     0.003000000    -0.269000000
H     2.573000000    -0.090000000    -0.388000000
C     0.944000000     1.271000000    -0.030000000
C     1.696000000     2.542000000    -0.133000000
O     2.874000000     2.473000000    -0.316000000
O     1.170000000     3.605000000     0.120000000
