17
-98.22891
C    -0.501000000     1.240000000     0.567000000
H    -0.989000000     2.112000000     0.995000000
C    -1.051000000    -0.034000000     0.763000000
H    -1.888000000    -0.090000000     1.454000000
C    -0.513000000    -1.104000000     0.164000000
C    -1.145000000    -2.474000000     0.285000000
H    -1.589000000    -2.700000000    -0.687000000
H    -0.304000000    -3.073000000     0.643000000
H    -1.883000000    -2.435000000     1.089000000
C     0.654000000    -0.938000000    -0.583000000
H     1.072000000    -1.832000000    -1.039000000
C     1.217000000     0.284000000    -0.792000000
H     2.071000000     0.315000000    -1.464000000
C     0.653000000     1.423000000    -0.235000000
C     1.232000000     2.795000000    -0.381000000
O     2.238000000     2.803000000    -1.069000000
O     0.734000000     3.704000000     0.286000000
