17
-89.82095
C    -1.150000000     0.591000000     0.673000000
H    -2.046000000     0.881000000     1.215000000
C    -0.113000000    -0.047000000     1.263000000
H    -0.082000000    -0.102000000     2.348000000
C     1.030000000    -0.321000000     0.548000000
C     2.200000000    -1.017000000     1.250000000
H     3.125000000    -0.879000000     0.685000000
H     2.293000000    -0.652000000     2.275000000
H     2.005000000    -2.085000000     1.362000000
C     0.991000000    -0.368000000    -0.831000000
H     1.777000000    -0.779000000    -1.459000000
C    -0.174000000     0.062000000    -1.420000000
H    -0.172000000     0.018000000    -2.506000000
C    -1.256000000     0.595000000    -0.684000000
C    -2.476000000     1.169000000    -1.409000000
O    -2.772000000     0.970000000    -2.552000000
O    -3.185000000     1.962000000    -0.764000000
