17
-94.72667
C     0.026000000     1.442000000     0.241000000
H    -0.022000000     2.514000000     0.416000000
C    -0.971000000     0.614000000     0.665000000
H    -1.836000000     0.976000000     1.214000000
C    -0.833000000    -0.791000000     0.460000000
C    -1.810000000    -1.777000000     1.001000000
H    -2.739000000    -1.555000000     0.472000000
H    -1.455000000    -2.809000000     0.959000000
H    -2.040000000    -1.575000000     2.049000000
C     0.231000000    -1.243000000    -0.331000000
H     0.363000000    -2.299000000    -0.551000000
C     1.147000000    -0.398000000    -0.816000000
H     1.997000000    -0.730000000    -1.407000000
C     1.076000000     0.951000000    -0.520000000
C     2.010000000     1.974000000    -1.172000000
O     3.038000000     1.582000000    -1.708000000
O     1.811000000     3.122000000    -0.967000000
