17
-94.27093
C    -0.918000000     1.143000000     0.202000000
H    -1.753000000     1.826000000     0.338000000
C    -0.978000000    -0.042000000     0.903000000
H    -1.821000000    -0.059000000     1.588000000
C    -0.091000000    -1.036000000     0.658000000
C    -0.256000000    -2.394000000     1.307000000
H     0.698000000    -2.746000000     1.707000000
H    -1.086000000    -2.340000000     2.014000000
H    -0.467000000    -2.989000000     0.416000000
C     0.865000000    -0.890000000    -0.350000000
H     1.561000000    -1.712000000    -0.497000000
C     1.028000000     0.348000000    -0.986000000
H     1.719000000     0.430000000    -1.821000000
C     0.163000000     1.375000000    -0.700000000
C     0.421000000     2.675000000    -1.381000000
O     1.413000000     2.893000000    -2.073000000
O    -0.496000000     3.520000000    -1.328000000
