17
-96.12597
C    -0.326000000     1.044000000     0.994000000
H    -0.774000000     1.821000000     1.607000000
C    -1.251000000     0.195000000     0.419000000
H    -2.317000000     0.248000000     0.624000000
C    -0.789000000    -0.746000000    -0.526000000
C    -1.753000000    -1.657000000    -1.263000000
H    -1.704000000    -2.675000000    -0.871000000
H    -2.753000000    -1.232000000    -1.153000000
H    -1.460000000    -1.739000000    -2.311000000
C     0.616000000    -0.904000000    -0.732000000
H     0.955000000    -1.746000000    -1.330000000
C     1.519000000    -0.042000000    -0.185000000
H     2.563000000    -0.266000000    -0.388000000
C     1.062000000     0.963000000     0.659000000
C     1.913000000     1.968000000     1.331000000
O     3.082000000     2.004000000     1.025000000
O     1.416000000     2.756000000     2.101000000
