17
-87.81739
C    -0.361000000     1.404000000     0.371000000
H    -0.844000000     2.336000000     0.654000000
C    -1.293000000     0.372000000     0.211000000
H    -2.362000000     0.501000000     0.360000000
C    -0.807000000    -0.916000000    -0.171000000
C    -1.743000000    -1.975000000    -0.591000000
H    -2.761000000    -1.613000000    -0.432000000
H    -1.587000000    -2.318000000    -1.616000000
H    -1.772000000    -2.825000000     0.093000000
C     0.544000000    -1.098000000    -0.265000000
H     0.875000000    -2.007000000    -0.762000000
C     1.521000000    -0.164000000     0.090000000
H     2.574000000    -0.322000000    -0.127000000
C     1.029000000     1.116000000     0.362000000
C     2.051000000     2.213000000     0.539000000
O     3.184000000     1.959000000     0.351000000
O     1.759000000     3.338000000     0.933000000
