17
-90.43806
C    -0.078000000     0.613000000     1.382000000
H    -0.162000000     1.074000000     2.363000000
C    -1.169000000     0.065000000     0.749000000
H    -2.148000000     0.078000000     1.222000000
C    -0.917000000    -0.616000000    -0.454000000
C    -2.023000000    -1.295000000    -1.256000000
H    -2.026000000    -0.943000000    -2.289000000
H    -1.808000000    -2.366000000    -1.282000000
H    -2.966000000    -1.174000000    -0.719000000
C     0.264000000    -0.669000000    -1.101000000
H     0.383000000    -1.075000000    -2.102000000
C     1.309000000     0.131000000    -0.574000000
H     2.264000000     0.263000000    -1.075000000
C     1.128000000     0.777000000     0.725000000
C     2.329000000     1.548000000     1.308000000
O     3.268000000     1.681000000     0.610000000
O     2.359000000     1.915000000     2.491000000
