17
-95.41400
C     0.019000000     1.270000000     0.743000000
H    -0.106000000     2.215000000     1.264000000
C    -1.050000000     0.665000000     0.187000000
H    -1.995000000     1.200000000     0.242000000
C    -0.967000000    -0.590000000    -0.421000000
C    -2.230000000    -1.098000000    -1.079000000
H    -2.184000000    -2.167000000    -0.864000000
H    -3.129000000    -0.775000000    -0.550000000
H    -2.327000000    -0.979000000    -2.161000000
C     0.224000000    -1.253000000    -0.422000000
H     0.187000000    -2.210000000    -0.936000000
C     1.345000000    -0.582000000    -0.009000000
H     2.319000000    -1.050000000    -0.122000000
C     1.294000000     0.709000000     0.543000000
C     2.542000000     1.411000000     1.022000000
O     3.620000000     0.955000000     0.674000000
O     2.445000000     2.278000000     1.881000000
