17
-99.20394
C     0.149000000     1.452000000     0.208000000
H     0.239000000     2.535000000     0.231000000
C    -0.975000000     0.818000000    -0.316000000
H    -1.850000000     1.308000000    -0.736000000
C    -0.952000000    -0.576000000    -0.441000000
C    -2.176000000    -1.180000000    -1.087000000
H    -2.350000000    -0.703000000    -2.054000000
H    -1.937000000    -2.202000000    -1.385000000
H    -3.029000000    -1.136000000    -0.407000000
C     0.133000000    -1.321000000    -0.065000000
H     0.062000000    -2.395000000    -0.212000000
C     1.144000000    -0.675000000     0.632000000
H     1.934000000    -1.282000000     1.067000000
C     1.254000000     0.704000000     0.614000000
C     2.466000000     1.386000000     1.174000000
O     3.558000000     0.925000000     0.859000000
O     2.322000000     2.337000000     1.925000000
