17
-97.94928
C    -0.354000000     1.290000000     0.568000000
H    -0.707000000     2.274000000     0.865000000
C    -1.222000000     0.420000000    -0.123000000
H    -2.213000000     0.822000000    -0.317000000
C    -0.717000000    -0.766000000    -0.731000000
C    -1.659000000    -1.643000000    -1.487000000
H    -2.555000000    -1.771000000    -0.875000000
H    -1.923000000    -1.112000000    -2.404000000
H    -1.234000000    -2.648000000    -1.536000000
C     0.526000000    -1.153000000    -0.395000000
H     0.852000000    -2.129000000    -0.743000000
C     1.396000000    -0.284000000     0.360000000
H     2.421000000    -0.584000000     0.564000000
C     0.955000000     0.905000000     0.896000000
C     1.899000000     1.850000000     1.617000000
O     3.072000000     1.554000000     1.783000000
O     1.468000000     2.972000000     1.954000000
