17
-94.49235
C    -0.255000000     1.338000000     0.559000000
H    -0.435000000     2.343000000     0.931000000
C    -1.241000000     0.357000000     0.372000000
H    -2.235000000     0.477000000     0.797000000
C    -0.862000000    -0.830000000    -0.203000000
C    -1.852000000    -1.951000000    -0.361000000
H    -1.797000000    -2.488000000    -1.311000000
H    -1.649000000    -2.608000000     0.487000000
H    -2.873000000    -1.563000000    -0.339000000
C     0.415000000    -1.018000000    -0.671000000
H     0.646000000    -1.841000000    -1.342000000
C     1.350000000    -0.053000000    -0.465000000
H     2.380000000    -0.238000000    -0.757000000
C     1.077000000     1.172000000     0.110000000
C     2.158000000     2.041000000     0.616000000
O     3.245000000     2.090000000     0.023000000
O     1.930000000     2.764000000     1.559000000
