17
-96.78354
C    -0.374000000     1.298000000    -0.607000000
H    -0.611000000     2.304000000    -0.942000000
C     0.362000000     1.146000000     0.574000000
H     0.585000000     2.031000000     1.165000000
C     0.738000000    -0.078000000     1.037000000
C     1.221000000    -0.278000000     2.448000000
H     0.375000000    -0.001000000     3.080000000
H     1.366000000    -1.346000000     2.626000000
H     2.089000000     0.266000000     2.826000000
C     0.283000000    -1.232000000     0.286000000
H     0.431000000    -2.218000000     0.721000000
C    -0.358000000    -1.082000000    -0.957000000
H    -0.651000000    -1.956000000    -1.533000000
C    -0.695000000     0.208000000    -1.428000000
C    -1.412000000     0.255000000    -2.780000000
O    -1.731000000    -0.720000000    -3.402000000
O    -1.626000000     1.404000000    -3.120000000
