17
-84.56369
C     0.396000000     1.472000000     0.059000000
H     0.522000000     2.552000000     0.031000000
C    -0.883000000     0.963000000    -0.176000000
H    -1.726000000     1.640000000    -0.288000000
C    -1.129000000    -0.404000000    -0.262000000
C    -2.476000000    -0.976000000    -0.552000000
H    -2.702000000    -0.597000000    -1.551000000
H    -2.509000000    -2.066000000    -0.597000000
H    -3.214000000    -0.850000000     0.243000000
C    -0.077000000    -1.298000000    -0.023000000
H    -0.189000000    -2.379000000    -0.023000000
C     1.201000000    -0.802000000     0.171000000
H     1.935000000    -1.593000000     0.297000000
C     1.444000000     0.552000000     0.294000000
C     2.770000000     1.080000000     0.729000000
O     3.766000000     0.456000000     0.722000000
O     2.865000000     2.251000000     0.928000000
