17
-89.84846
C    -0.805000000     0.407000000     1.217000000
H    -1.420000000     0.728000000     2.054000000
C    -0.514000000     1.272000000     0.129000000
H    -0.713000000     2.341000000     0.138000000
C     0.253000000     0.804000000    -0.936000000
C     0.632000000     1.634000000    -2.099000000
H     0.364000000     2.688000000    -2.003000000
H     1.699000000     1.470000000    -2.269000000
H     0.057000000     1.321000000    -2.972000000
C     0.671000000    -0.561000000    -0.922000000
H     1.282000000    -1.042000000    -1.681000000
C     0.339000000    -1.404000000     0.144000000
H     0.704000000    -2.426000000     0.080000000
C    -0.327000000    -0.965000000     1.206000000
C    -0.702000000    -1.853000000     2.320000000
O    -0.145000000    -2.915000000     2.345000000
O    -1.376000000    -1.500000000     3.248000000
