17
-88.06738
C    -1.253000000     0.559000000     0.662000000
H    -2.158000000     1.042000000     1.021000000
C    -0.879000000     0.814000000    -0.730000000
H    -1.479000000     1.491000000    -1.334000000
C     0.241000000     0.091000000    -1.189000000
C     0.689000000     0.116000000    -2.627000000
H     1.403000000     0.937000000    -2.719000000
H     1.201000000    -0.762000000    -3.025000000
H    -0.032000000     0.315000000    -3.423000000
C     0.988000000    -0.701000000    -0.351000000
H     1.823000000    -1.235000000    -0.797000000
C     0.674000000    -0.830000000     1.005000000
H     1.312000000    -1.433000000     1.645000000
C    -0.385000000    -0.137000000     1.535000000
C    -0.650000000    -0.118000000     3.023000000
O    -0.025000000    -0.767000000     3.833000000
O    -1.472000000     0.615000000     3.476000000
