17
-97.16979
C     0.705000000    -0.476000000     1.195000000
H     1.215000000    -0.687000000     2.132000000
C     0.856000000     0.782000000     0.589000000
H     1.552000000     1.437000000     1.106000000
C     0.114000000     1.151000000    -0.539000000
C     0.441000000     2.441000000    -1.224000000
H     0.195000000     3.303000000    -0.600000000
H     1.487000000     2.374000000    -1.528000000
H    -0.185000000     2.612000000    -2.103000000
C    -0.768000000     0.197000000    -1.097000000
H    -1.364000000     0.515000000    -1.949000000
C    -0.976000000    -1.058000000    -0.505000000
H    -1.782000000    -1.704000000    -0.842000000
C    -0.157000000    -1.483000000     0.611000000
C    -0.372000000    -2.826000000     1.329000000
O    -1.287000000    -3.577000000     1.083000000
O     0.325000000    -2.994000000     2.342000000
