17
-86.52747
C     0.770000000     0.009000000     1.265000000
H     1.288000000     0.065000000     2.219000000
C     0.294000000     1.117000000     0.504000000
H     0.528000000     2.107000000     0.889000000
C    -0.383000000     0.955000000    -0.654000000
C    -0.892000000     2.159000000    -1.393000000
H    -0.162000000     2.842000000    -1.832000000
H    -1.601000000     1.852000000    -2.165000000
H    -1.408000000     2.774000000    -0.653000000
C    -0.640000000    -0.337000000    -1.183000000
H    -1.123000000    -0.399000000    -2.155000000
C    -0.150000000    -1.451000000    -0.468000000
H    -0.313000000    -2.464000000    -0.825000000
C     0.560000000    -1.259000000     0.785000000
C     1.048000000    -2.380000000     1.594000000
O     0.370000000    -3.349000000     1.544000000
O     1.808000000    -2.242000000     2.522000000
