17
-96.96641
C     1.104000000    -0.142000000     0.937000000
H     1.837000000    -0.060000000     1.736000000
C     1.087000000     0.801000000    -0.062000000
H     1.845000000     1.579000000    -0.099000000
C     0.019000000     0.767000000    -0.969000000
C    -0.156000000     1.990000000    -1.876000000
H    -0.985000000     1.875000000    -2.578000000
H    -0.454000000     2.829000000    -1.244000000
H     0.682000000     2.374000000    -2.462000000
C    -0.926000000    -0.248000000    -0.876000000
H    -1.717000000    -0.322000000    -1.618000000
C    -0.839000000    -1.231000000     0.118000000
H    -1.631000000    -1.975000000     0.092000000
C     0.141000000    -1.162000000     1.102000000
C     0.037000000    -2.131000000     2.265000000
O    -0.798000000    -2.992000000     2.298000000
O     0.761000000    -1.955000000     3.240000000
