17
-98.81502
C    -0.471000000     1.098000000    -0.886000000
H    -0.677000000     2.009000000    -1.442000000
C     0.563000000     1.249000000     0.014000000
H     1.075000000     2.207000000     0.061000000
C     0.806000000     0.185000000     0.863000000
C     1.748000000     0.227000000     2.005000000
H     2.590000000    -0.425000000     1.763000000
H     2.245000000     1.182000000     2.182000000
H     1.264000000    -0.074000000     2.936000000
C     0.253000000    -1.084000000     0.648000000
H     0.675000000    -1.918000000     1.202000000
C    -0.682000000    -1.245000000    -0.363000000
H    -1.008000000    -2.260000000    -0.576000000
C    -1.130000000    -0.125000000    -1.104000000
C    -2.138000000    -0.303000000    -2.194000000
O    -2.567000000    -1.427000000    -2.356000000
O    -2.547000000     0.706000000    -2.757000000
