17
-94.10286
C     0.659000000    -0.683000000     1.069000000
H     1.251000000    -1.044000000     1.906000000
C     1.109000000     0.486000000     0.429000000
H     2.060000000     0.876000000     0.781000000
C     0.405000000     1.039000000    -0.575000000
C     0.993000000     2.236000000    -1.246000000
H     1.584000000     2.835000000    -0.550000000
H     1.642000000     1.727000000    -1.961000000
H     0.246000000     2.875000000    -1.721000000
C    -0.789000000     0.466000000    -0.912000000
H    -1.403000000     0.866000000    -1.715000000
C    -1.336000000    -0.637000000    -0.254000000
H    -2.294000000    -1.038000000    -0.574000000
C    -0.584000000    -1.261000000     0.735000000
C    -1.050000000    -2.536000000     1.452000000
O    -2.242000000    -2.813000000     1.347000000
O    -0.253000000    -3.386000000     1.783000000
