17
-80.13032
C     0.899000000    -0.627000000     0.979000000
H     1.432000000    -0.984000000     1.857000000
C     1.204000000     0.536000000     0.289000000
H     2.153000000     1.012000000     0.524000000
C     0.318000000     1.094000000    -0.652000000
C     0.358000000     2.408000000    -1.251000000
H     0.830000000     3.128000000    -0.578000000
H     1.072000000     2.323000000    -2.072000000
H    -0.586000000     2.893000000    -1.508000000
C    -0.855000000     0.315000000    -0.871000000
H    -1.562000000     0.649000000    -1.626000000
C    -1.131000000    -0.851000000    -0.173000000
H    -2.042000000    -1.390000000    -0.421000000
C    -0.326000000    -1.351000000     0.798000000
C    -0.524000000    -2.740000000     1.367000000
O    -1.623000000    -3.131000000     1.479000000
O     0.386000000    -3.286000000     1.864000000
