17
-93.72197
C     0.642000000    -1.013000000     0.951000000
H     1.253000000    -1.700000000     1.532000000
C     1.009000000     0.365000000     0.829000000
H     1.884000000     0.642000000     1.412000000
C     0.301000000     1.190000000    -0.099000000
C     0.757000000     2.593000000    -0.327000000
H     1.445000000     2.756000000    -1.159000000
H    -0.010000000     3.366000000    -0.412000000
H     1.363000000     2.910000000     0.524000000
C    -0.732000000     0.644000000    -0.892000000
H    -1.231000000     1.275000000    -1.624000000
C    -1.186000000    -0.670000000    -0.724000000
H    -2.027000000    -1.029000000    -1.312000000
C    -0.460000000    -1.486000000     0.153000000
C    -0.948000000    -2.885000000     0.334000000
O    -1.578000000    -3.491000000    -0.492000000
O    -0.486000000    -3.460000000     1.302000000
