17
-87.21522
C     0.539000000    -0.752000000     1.169000000
H     0.811000000    -1.171000000     2.134000000
C     0.609000000     0.641000000     0.997000000
H     1.009000000     1.307000000     1.758000000
C     0.106000000     1.248000000    -0.181000000
C     0.184000000     2.725000000    -0.472000000
H     0.759000000     3.212000000     0.318000000
H     0.828000000     2.916000000    -1.333000000
H    -0.677000000     3.317000000    -0.788000000
C    -0.428000000     0.376000000    -1.149000000
H    -0.762000000     0.828000000    -2.080000000
C    -0.512000000    -1.008000000    -0.971000000
H    -1.058000000    -1.659000000    -1.650000000
C    -0.083000000    -1.600000000     0.228000000
C    -0.301000000    -3.072000000     0.526000000
O    -1.286000000    -3.590000000     0.097000000
O     0.259000000    -3.715000000     1.403000000
