17
-101.66597
C     0.332000000    -1.076000000     1.013000000
H     0.515000000    -1.782000000     1.819000000
C     0.643000000     0.293000000     1.092000000
H     1.173000000     0.641000000     1.975000000
C     0.245000000     1.199000000     0.120000000
C     0.678000000     2.618000000     0.152000000
H    -0.133000000     3.318000000     0.365000000
H     1.489000000     2.898000000     0.827000000
H     1.061000000     2.812000000    -0.852000000
C    -0.502000000     0.764000000    -0.979000000
H    -0.741000000     1.530000000    -1.713000000
C    -0.807000000    -0.635000000    -1.074000000
H    -1.393000000    -0.898000000    -1.951000000
C    -0.353000000    -1.535000000    -0.126000000
C    -0.681000000    -3.003000000    -0.170000000
O    -1.468000000    -3.355000000    -1.050000000
O    -0.058000000    -3.787000000     0.552000000
