17
-93.27343
C    -0.874000000     1.174000000    -0.225000000
H    -1.393000000     2.128000000    -0.195000000
C     0.326000000     1.183000000     0.466000000
H     0.560000000     1.972000000     1.176000000
C     1.079000000     0.032000000     0.564000000
C     2.343000000    -0.019000000     1.448000000
H     3.185000000    -0.436000000     0.892000000
H     2.672000000     0.914000000     1.910000000
H     2.217000000    -0.724000000     2.273000000
C     0.577000000    -1.118000000    -0.035000000
H     1.154000000    -2.032000000     0.080000000
C    -0.640000000    -1.163000000    -0.738000000
H    -0.976000000    -2.099000000    -1.177000000
C    -1.343000000     0.001000000    -0.882000000
C    -2.690000000     0.028000000    -1.590000000
O    -3.005000000    -0.974000000    -2.127000000
O    -3.200000000     1.134000000    -1.841000000
