17
-95.34374
C    -0.582000000    -1.043000000     0.765000000
H    -1.053000000    -1.854000000     1.314000000
C    -1.275000000    -0.023000000     0.215000000
H    -2.362000000    -0.035000000     0.221000000
C    -0.555000000     0.986000000    -0.389000000
C    -1.298000000     2.291000000    -0.681000000
H    -1.880000000     2.215000000    -1.602000000
H    -1.993000000     2.480000000     0.140000000
H    -0.683000000     3.193000000    -0.713000000
C     0.742000000     0.784000000    -0.792000000
H     1.134000000     1.538000000    -1.471000000
C     1.434000000    -0.346000000    -0.427000000
H     2.417000000    -0.627000000    -0.795000000
C     0.802000000    -1.260000000     0.452000000
C     1.535000000    -2.443000000     1.113000000
O     2.680000000    -2.640000000     0.792000000
O     0.929000000    -3.214000000     1.858000000
