17
-91.14418
C    -0.524000000    -0.711000000     1.162000000
H    -1.124000000    -1.108000000     1.976000000
C    -1.038000000     0.455000000     0.588000000
H    -1.968000000     0.858000000     0.980000000
C    -0.458000000     1.033000000    -0.555000000
C    -1.209000000     2.108000000    -1.196000000
H    -1.065000000     3.032000000    -0.633000000
H    -0.818000000     2.286000000    -2.200000000
H    -2.284000000     1.917000000    -1.165000000
C     0.702000000     0.486000000    -1.097000000
H     1.135000000     0.821000000    -2.036000000
C     1.261000000    -0.674000000    -0.506000000
H     2.221000000    -1.098000000    -0.788000000
C     0.683000000    -1.235000000     0.677000000
C     1.339000000    -2.339000000     1.411000000
O     2.409000000    -2.815000000     1.102000000
O     0.742000000    -3.017000000     2.280000000
