17
-88.59188
C    -0.287000000     1.092000000    -0.961000000
H    -0.309000000     1.829000000    -1.760000000
C     0.848000000     0.893000000    -0.212000000
H     1.712000000     1.503000000    -0.463000000
C     0.995000000    -0.109000000     0.733000000
C     2.332000000    -0.453000000     1.451000000
H     2.623000000     0.159000000     2.307000000
H     2.425000000    -1.492000000     1.774000000
H     3.168000000    -0.353000000     0.756000000
C    -0.138000000    -0.821000000     1.005000000
H    -0.187000000    -1.451000000     1.889000000
C    -1.314000000    -0.619000000     0.233000000
H    -2.221000000    -1.159000000     0.491000000
C    -1.405000000     0.279000000    -0.759000000
C    -2.453000000     0.251000000    -1.847000000
O    -3.185000000    -0.724000000    -2.027000000
O    -2.610000000     1.174000000    -2.602000000
