17
-93.10640
C    -1.287000000    -0.755000000    -0.010000000
H    -2.235000000    -1.256000000     0.169000000
C    -1.167000000     0.627000000    -0.028000000
H    -2.075000000     1.225000000    -0.029000000
C     0.095000000     1.240000000    -0.049000000
C     0.250000000     2.777000000    -0.048000000
H     0.777000000     3.018000000     0.877000000
H     0.940000000     3.161000000    -0.801000000
H    -0.674000000     3.338000000    -0.208000000
C     1.205000000     0.395000000    -0.033000000
H     2.176000000     0.874000000     0.062000000
C     1.080000000    -1.000000000    -0.039000000
H     1.967000000    -1.599000000     0.152000000
C    -0.189000000    -1.597000000    -0.093000000
C    -0.241000000    -3.086000000    -0.028000000
O     0.722000000    -3.758000000     0.067000000
O    -1.346000000    -3.601000000     0.034000000
