17
-92.83408
C    -1.192000000    -0.447000000     0.819000000
H    -2.069000000    -0.740000000     1.390000000
C    -0.951000000     0.813000000     0.439000000
H    -1.746000000     1.538000000     0.594000000
C     0.143000000     1.141000000    -0.352000000
C     0.284000000     2.526000000    -0.861000000
H     1.325000000     2.761000000    -1.095000000
H    -0.269000000     2.552000000    -1.802000000
H    -0.125000000     3.280000000    -0.185000000
C     1.109000000     0.233000000    -0.654000000
H     1.958000000     0.563000000    -1.246000000
C     0.989000000    -1.110000000    -0.226000000
H     1.823000000    -1.783000000    -0.409000000
C    -0.207000000    -1.409000000     0.432000000
C    -0.361000000    -2.915000000     0.882000000
O     0.347000000    -3.809000000     0.419000000
O    -1.050000000    -3.198000000     1.848000000
