17
-95.25940
C     0.152000000     1.053000000    -0.976000000
H     0.266000000     1.923000000    -1.618000000
C     1.213000000     0.561000000    -0.217000000
H     2.200000000     1.013000000    -0.269000000
C     0.908000000    -0.442000000     0.721000000
C     2.011000000    -0.801000000     1.604000000
H     2.303000000     0.075000000     2.187000000
H     1.582000000    -1.568000000     2.253000000
H     2.829000000    -1.286000000     1.067000000
C    -0.414000000    -0.962000000     0.852000000
H    -0.583000000    -1.593000000     1.721000000
C    -1.379000000    -0.571000000    -0.095000000
H    -2.389000000    -0.935000000     0.070000000
C    -1.115000000     0.477000000    -0.984000000
C    -2.226000000     0.882000000    -1.888000000
O    -3.282000000     0.309000000    -1.823000000
O    -2.079000000     1.870000000    -2.608000000
