17
-94.09628
C    -0.754000000    -1.297000000    -0.261000000
H    -1.452000000    -2.087000000    -0.525000000
C    -1.311000000    -0.060000000     0.155000000
H    -2.360000000     0.100000000     0.390000000
C    -0.502000000     1.036000000     0.424000000
C    -1.091000000     2.371000000     0.817000000
H    -0.664000000     2.681000000     1.773000000
H    -0.785000000     3.132000000     0.095000000
H    -2.160000000     2.149000000     0.824000000
C     0.870000000     0.954000000     0.162000000
H     1.500000000     1.840000000     0.177000000
C     1.463000000    -0.236000000    -0.175000000
H     2.502000000    -0.234000000    -0.494000000
C     0.645000000    -1.355000000    -0.427000000
C     1.237000000    -2.655000000    -0.820000000
O     2.405000000    -2.756000000    -1.013000000
O     0.455000000    -3.585000000    -1.100000000
