17
-99.30520
C     0.119000000    -1.513000000    -0.163000000
H     0.065000000    -2.564000000    -0.435000000
C    -1.065000000    -0.808000000     0.095000000
H    -2.030000000    -1.308000000     0.110000000
C    -1.043000000     0.575000000     0.195000000
C    -2.308000000     1.360000000     0.648000000
H    -3.197000000     0.795000000     0.362000000
H    -2.314000000     1.524000000     1.728000000
H    -2.301000000     2.313000000     0.116000000
C     0.154000000     1.263000000     0.225000000
H     0.160000000     2.327000000     0.446000000
C     1.339000000     0.597000000    -0.128000000
H     2.246000000     1.151000000    -0.356000000
C     1.338000000    -0.817000000    -0.263000000
C     2.628000000    -1.462000000    -0.718000000
O     3.649000000    -0.825000000    -0.717000000
O     2.567000000    -2.611000000    -1.149000000
