17
-91.50801
C     1.182000000    -0.421000000    -0.769000000
H     1.919000000    -0.669000000    -1.529000000
C     0.153000000     0.336000000    -1.238000000
H     0.162000000     0.673000000    -2.272000000
C    -0.918000000     0.672000000    -0.418000000
C    -2.008000000     1.464000000    -1.012000000
H    -1.748000000     2.521000000    -1.108000000
H    -2.239000000     0.971000000    -1.959000000
H    -2.842000000     1.331000000    -0.320000000
C    -0.988000000     0.164000000     0.887000000
H    -1.922000000     0.352000000     1.410000000
C     0.094000000    -0.488000000     1.467000000
H     0.159000000    -0.868000000     2.483000000
C     1.132000000    -0.827000000     0.547000000
C     2.285000000    -1.637000000     1.117000000
O     2.305000000    -1.845000000     2.304000000
O     3.275000000    -1.726000000     0.418000000
