17
-93.05516
C     0.376000000    -1.217000000     0.752000000
H     0.507000000    -2.126000000     1.333000000
C    -0.843000000    -0.899000000     0.283000000
H    -1.699000000    -1.535000000     0.491000000
C    -1.153000000     0.241000000    -0.407000000
C    -2.517000000     0.680000000    -0.628000000
H    -2.624000000     1.751000000    -0.445000000
H    -2.705000000     0.603000000    -1.701000000
H    -3.204000000     0.029000000    -0.083000000
C    -0.118000000     1.101000000    -0.713000000
H    -0.368000000     2.020000000    -1.238000000
C     1.165000000     0.760000000    -0.340000000
H     2.011000000     1.401000000    -0.576000000
C     1.455000000    -0.362000000     0.483000000
C     2.880000000    -0.701000000     0.908000000
O     3.735000000    -0.011000000     0.397000000
O     3.099000000    -1.739000000     1.481000000
