17
-96.42664
C     0.946000000    -0.934000000    -0.620000000
H     1.390000000    -1.738000000    -1.201000000
C    -0.373000000    -1.223000000    -0.281000000
H    -0.768000000    -2.200000000    -0.546000000
C    -1.136000000    -0.287000000     0.413000000
C    -2.568000000    -0.563000000     0.751000000
H    -2.687000000    -0.606000000     1.836000000
H    -3.262000000     0.233000000     0.475000000
H    -2.928000000    -1.560000000     0.489000000
C    -0.579000000     0.974000000     0.619000000
H    -1.149000000     1.807000000     1.021000000
C     0.699000000     1.249000000     0.193000000
H     1.136000000     2.231000000     0.355000000
C     1.485000000     0.307000000    -0.421000000
C     2.861000000     0.690000000    -0.906000000
O     3.269000000     1.836000000    -1.015000000
O     3.665000000    -0.221000000    -1.157000000
