17
-93.91602
C     1.240000000    -0.625000000    -0.309000000
H     2.117000000    -1.180000000    -0.632000000
C     0.037000000    -1.205000000    -0.348000000
H    -0.103000000    -2.276000000    -0.465000000
C    -1.143000000    -0.473000000    -0.034000000
C    -2.423000000    -1.133000000    -0.383000000
H    -2.521000000    -1.130000000    -1.470000000
H    -2.592000000    -2.175000000    -0.103000000
H    -3.269000000    -0.586000000     0.038000000
C    -0.983000000     0.836000000     0.332000000
H    -1.842000000     1.497000000     0.420000000
C     0.269000000     1.413000000     0.528000000
H     0.351000000     2.462000000     0.801000000
C     1.383000000     0.699000000     0.186000000
C     2.791000000     1.176000000     0.396000000
O     2.933000000     2.287000000     0.780000000
O     3.756000000     0.405000000     0.265000000
