17
-93.79077
C     1.296000000    -0.595000000     0.211000000
H     2.197000000    -1.203000000     0.191000000
C     0.761000000    -0.307000000    -0.994000000
H     1.305000000    -0.516000000    -1.912000000
C    -0.439000000     0.358000000    -1.063000000
C    -1.035000000     0.554000000    -2.441000000
H    -0.259000000     0.243000000    -3.143000000
H    -1.857000000    -0.142000000    -2.621000000
H    -1.497000000     1.529000000    -2.614000000
C    -1.101000000     0.793000000     0.056000000
H    -2.027000000     1.334000000    -0.125000000
C    -0.558000000     0.467000000     1.341000000
H    -1.162000000     0.615000000     2.233000000
C     0.644000000    -0.307000000     1.415000000
C     1.150000000    -0.728000000     2.833000000
O     0.482000000    -0.596000000     3.886000000
O     2.108000000    -1.504000000     2.751000000
