17
-97.02854
C     1.423000000    -0.151000000     0.394000000
H     2.494000000    -0.099000000     0.572000000
C     0.946000000     0.056000000    -0.853000000
H     1.578000000     0.351000000    -1.687000000
C    -0.412000000     0.107000000    -1.124000000
C    -0.838000000     0.360000000    -2.570000000
H    -1.101000000    -0.496000000    -3.195000000
H    -1.775000000     0.921000000    -2.571000000
H    -0.076000000     0.898000000    -3.139000000
C    -1.336000000     0.085000000    -0.075000000
H    -2.410000000     0.155000000    -0.231000000
C    -0.844000000    -0.221000000     1.198000000
H    -1.611000000    -0.212000000     1.968000000
C     0.535000000    -0.267000000     1.476000000
C     1.022000000    -0.384000000     2.909000000
O     0.193000000    -0.510000000     3.810000000
O     2.215000000    -0.593000000     3.113000000
