17
-92.39445
C     1.107000000    -0.832000000    -0.406000000
H     1.789000000    -1.514000000    -0.909000000
C     0.136000000    -0.228000000    -1.250000000
H     0.018000000    -0.447000000    -2.308000000
C    -0.815000000     0.565000000    -0.713000000
C    -1.892000000     1.118000000    -1.622000000
H    -2.488000000     0.273000000    -1.974000000
H    -2.589000000     1.823000000    -1.164000000
H    -1.434000000     1.553000000    -2.512000000
C    -0.770000000     0.851000000     0.648000000
H    -1.477000000     1.547000000     1.090000000
C     0.103000000     0.191000000     1.499000000
H     0.081000000     0.403000000     2.565000000
C     1.101000000    -0.634000000     0.988000000
C     2.128000000    -1.355000000     1.832000000
O     1.933000000    -1.499000000     2.976000000
O     3.073000000    -1.811000000     1.256000000
