17
-94.05858
C     1.028000000    -1.026000000    -0.065000000
H     1.835000000    -1.719000000    -0.292000000
C     0.431000000    -0.391000000    -1.136000000
H     0.795000000    -0.652000000    -2.127000000
C    -0.476000000     0.636000000    -0.923000000
C    -0.920000000     1.489000000    -2.085000000
H    -1.979000000     1.757000000    -2.095000000
H    -0.388000000     2.433000000    -1.955000000
H    -0.723000000     0.929000000    -3.002000000
C    -0.933000000     0.938000000     0.388000000
H    -1.509000000     1.848000000     0.534000000
C    -0.496000000     0.115000000     1.426000000
H    -0.864000000     0.309000000     2.431000000
C     0.549000000    -0.827000000     1.203000000
C     1.081000000    -1.700000000     2.265000000
O     0.450000000    -1.871000000     3.325000000
O     2.111000000    -2.270000000     2.116000000
