17
-93.51071
C    -0.416000000     0.691000000    -1.236000000
H    -0.557000000     1.288000000    -2.133000000
C     0.678000000     0.962000000    -0.408000000
H     1.378000000     1.766000000    -0.623000000
C     0.952000000     0.226000000     0.748000000
C     2.254000000     0.592000000     1.539000000
H     2.526000000    -0.224000000     2.212000000
H     3.049000000     0.794000000     0.819000000
H     2.204000000     1.569000000     2.025000000
C     0.039000000    -0.749000000     1.077000000
H     0.236000000    -1.302000000     1.992000000
C    -1.046000000    -1.049000000     0.258000000
H    -1.657000000    -1.903000000     0.539000000
C    -1.247000000    -0.422000000    -0.935000000
C    -2.458000000    -0.707000000    -1.823000000
O    -2.963000000    -1.791000000    -1.748000000
O    -2.969000000     0.257000000    -2.308000000
