17
-98.36590
C     0.704000000    -1.258000000     0.168000000
H     1.269000000    -2.186000000     0.201000000
C     0.213000000    -0.718000000    -1.007000000
H     0.347000000    -1.306000000    -1.912000000
C    -0.513000000     0.480000000    -1.036000000
C    -0.767000000     1.112000000    -2.384000000
H    -0.081000000     0.797000000    -3.173000000
H    -1.778000000     0.947000000    -2.763000000
H    -0.738000000     2.194000000    -2.240000000
C    -0.750000000     1.149000000     0.165000000
H    -1.313000000     2.078000000     0.207000000
C    -0.341000000     0.528000000     1.375000000
H    -0.565000000     0.976000000     2.340000000
C     0.449000000    -0.611000000     1.343000000
C     1.077000000    -1.270000000     2.624000000
O     1.035000000    -0.671000000     3.667000000
O     1.744000000    -2.246000000     2.431000000
