17
-94.35988
C     0.099000000    -0.036000000     1.374000000
H     0.220000000     0.079000000     2.448000000
C     1.039000000     0.554000000     0.575000000
H     1.812000000     1.117000000     1.091000000
C     0.900000000     0.385000000    -0.774000000
C     1.814000000     1.122000000    -1.762000000
H     1.431000000     2.144000000    -1.802000000
H     2.831000000     1.084000000    -1.365000000
H     1.807000000     0.640000000    -2.742000000
C    -0.259000000    -0.247000000    -1.241000000
H    -0.403000000    -0.262000000    -2.318000000
C    -1.272000000    -0.672000000    -0.409000000
H    -2.176000000    -1.080000000    -0.854000000
C    -1.071000000    -0.617000000     0.964000000
C    -2.017000000    -1.266000000     1.986000000
O    -3.169000000    -1.457000000     1.729000000
O    -1.582000000    -1.493000000     3.104000000
