17
-87.81335
C     0.230000000    -0.181000000     1.474000000
H     0.337000000    -0.172000000     2.556000000
C     1.195000000     0.190000000     0.554000000
H     2.224000000     0.438000000     0.802000000
C     0.880000000     0.339000000    -0.826000000
C     1.898000000     0.867000000    -1.824000000
H     1.392000000     1.664000000    -2.373000000
H     2.827000000     1.255000000    -1.399000000
H     2.000000000     0.067000000    -2.560000000
C    -0.367000000    -0.038000000    -1.235000000
H    -0.729000000     0.104000000    -2.250000000
C    -1.290000000    -0.479000000    -0.333000000
H    -2.270000000    -0.678000000    -0.759000000
C    -1.065000000    -0.525000000     1.044000000
C    -2.128000000    -0.876000000     2.084000000
O    -3.214000000    -1.216000000     1.771000000
O    -1.925000000    -0.762000000     3.266000000
