17
-92.65831
C     0.378000000    -0.557000000     1.354000000
H     0.647000000    -1.184000000     2.199000000
C     1.235000000    -0.229000000     0.318000000
H     2.283000000    -0.516000000     0.353000000
C     0.745000000     0.414000000    -0.859000000
C     1.778000000     0.587000000    -2.043000000
H     1.783000000    -0.308000000    -2.669000000
H     1.636000000     1.436000000    -2.716000000
H     2.803000000     0.756000000    -1.707000000
C    -0.607000000     0.653000000    -1.065000000
H    -0.916000000     1.008000000    -2.044000000
C    -1.529000000     0.433000000     0.053000000
H    -2.597000000     0.631000000     0.025000000
C    -1.030000000    -0.239000000     1.173000000
C    -1.949000000    -0.760000000     2.301000000
O    -3.073000000    -0.341000000     2.459000000
O    -1.588000000    -1.786000000     2.862000000
