17
-95.64635
C     0.224000000    -1.023000000     1.121000000
H     0.489000000    -1.833000000     1.796000000
C     1.209000000    -0.517000000     0.270000000
H     2.237000000    -0.864000000     0.330000000
C     0.860000000     0.471000000    -0.711000000
C     1.991000000     1.000000000    -1.692000000
H     2.852000000     1.343000000    -1.113000000
H     2.206000000     0.198000000    -2.401000000
H     1.676000000     1.907000000    -2.211000000
C    -0.448000000     0.943000000    -0.847000000
H    -0.707000000     1.643000000    -1.637000000
C    -1.399000000     0.340000000    -0.015000000
H    -2.407000000     0.697000000    -0.214000000
C    -1.113000000    -0.605000000     0.992000000
C    -2.241000000    -1.091000000     1.875000000
O    -3.379000000    -1.047000000     1.464000000
O    -2.054000000    -1.564000000     2.987000000
