17
-89.85531
C    -0.138000000     0.722000000     1.325000000
H    -0.232000000     1.328000000     2.223000000
C     0.759000000     1.025000000     0.252000000
H     1.432000000     1.876000000     0.329000000
C     0.813000000     0.244000000    -0.890000000
C     1.637000000     0.710000000    -2.057000000
H     1.057000000     1.198000000    -2.843000000
H     2.472000000     1.343000000    -1.750000000
H     2.054000000    -0.189000000    -2.517000000
C     0.024000000    -0.887000000    -0.988000000
H     0.096000000    -1.488000000    -1.891000000
C    -0.908000000    -1.097000000    -0.007000000
H    -1.456000000    -2.035000000    -0.021000000
C    -1.041000000    -0.282000000     1.143000000
C    -1.966000000    -0.650000000     2.226000000
O    -2.742000000    -1.578000000     2.106000000
O    -1.856000000    -0.234000000     3.361000000
