17
-96.61379
C     0.146000000    -0.028000000     1.490000000
H     0.235000000     0.371000000     2.498000000
C     0.925000000     0.721000000     0.547000000
H     1.698000000     1.407000000     0.884000000
C     0.674000000     0.617000000    -0.845000000
C     1.541000000     1.437000000    -1.797000000
H     1.635000000     1.024000000    -2.803000000
H     1.007000000     2.361000000    -2.029000000
H     2.538000000     1.543000000    -1.365000000
C    -0.418000000    -0.152000000    -1.248000000
H    -0.722000000    -0.169000000    -2.292000000
C    -1.093000000    -0.971000000    -0.325000000
H    -1.803000000    -1.627000000    -0.822000000
C    -0.790000000    -0.909000000     1.074000000
C    -1.597000000    -1.727000000     2.099000000
O    -2.632000000    -2.297000000     1.647000000
O    -1.343000000    -1.599000000     3.295000000
