17
-90.97214
C    -1.017000000     1.007000000    -0.543000000
H    -1.596000000     1.811000000    -0.991000000
C     0.284000000     1.307000000    -0.104000000
H     0.715000000     2.304000000    -0.135000000
C     1.118000000     0.334000000     0.338000000
C     2.493000000     0.606000000     0.844000000
H     3.148000000     0.244000000     0.048000000
H     2.844000000     1.637000000     0.928000000
H     2.723000000     0.077000000     1.771000000
C     0.673000000    -1.008000000     0.361000000
H     1.283000000    -1.855000000     0.664000000
C    -0.610000000    -1.308000000    -0.004000000
H    -0.904000000    -2.350000000     0.085000000
C    -1.471000000    -0.335000000    -0.480000000
C    -2.837000000    -0.732000000    -0.884000000
O    -3.227000000    -1.837000000    -0.640000000
O    -3.618000000     0.101000000    -1.252000000
