17
-92.21816
C    -0.096000000     0.473000000     1.412000000
H    -0.001000000     0.745000000     2.460000000
C     0.862000000     0.856000000     0.495000000
H     1.718000000     1.423000000     0.851000000
C     0.883000000     0.363000000    -0.766000000
C     1.928000000     0.740000000    -1.771000000
H     1.519000000     0.679000000    -2.782000000
H     2.462000000     1.692000000    -1.741000000
H     2.689000000    -0.043000000    -1.746000000
C    -0.241000000    -0.380000000    -1.239000000
H    -0.276000000    -0.750000000    -2.260000000
C    -1.221000000    -0.765000000    -0.291000000
H    -2.049000000    -1.397000000    -0.605000000
C    -1.105000000    -0.365000000     1.047000000
C    -2.078000000    -0.969000000     2.015000000
O    -3.025000000    -1.675000000     1.744000000
O    -1.962000000    -0.623000000     3.171000000
