17
-87.71398
C    -0.296000000    -0.556000000     1.305000000
H    -0.541000000    -0.791000000     2.337000000
C     0.740000000     0.272000000     1.011000000
H     1.425000000     0.711000000     1.732000000
C     0.904000000     0.756000000    -0.259000000
C     1.892000000     1.886000000    -0.518000000
H     1.499000000     2.585000000    -1.259000000
H     2.070000000     2.448000000     0.402000000
H     2.854000000     1.429000000    -0.760000000
C     0.170000000     0.202000000    -1.243000000
H     0.411000000     0.457000000    -2.272000000
C    -0.868000000    -0.696000000    -1.016000000
H    -1.415000000    -1.027000000    -1.895000000
C    -1.148000000    -1.055000000     0.294000000
C    -2.297000000    -1.950000000     0.635000000
O    -2.886000000    -2.463000000    -0.258000000
O    -2.510000000    -2.211000000     1.763000000
