17
-93.77792
C     0.162000000    -1.391000000     0.619000000
H     0.296000000    -2.451000000     0.822000000
C     1.133000000    -0.697000000    -0.143000000
H     2.022000000    -1.256000000    -0.425000000
C     0.938000000     0.588000000    -0.532000000
C     1.876000000     1.291000000    -1.542000000
H     2.762000000     0.682000000    -1.735000000
H     1.284000000     1.365000000    -2.456000000
H     2.179000000     2.300000000    -1.254000000
C    -0.230000000     1.197000000    -0.254000000
H    -0.421000000     2.198000000    -0.633000000
C    -1.219000000     0.604000000     0.564000000
H    -2.146000000     1.135000000     0.768000000
C    -1.021000000    -0.691000000     0.974000000
C    -2.221000000    -1.434000000     1.563000000
O    -3.383000000    -0.972000000     1.549000000
O    -2.013000000    -2.468000000     2.116000000
