17
-95.40023
C    -0.234000000     0.961000000     1.091000000
H    -0.281000000     1.810000000     1.768000000
C     0.597000000     1.076000000     0.000000000
H     1.207000000     1.965000000    -0.137000000
C     0.867000000     0.028000000    -0.853000000
C     1.766000000     0.330000000    -2.067000000
H     1.252000000     0.992000000    -2.766000000
H     2.730000000     0.789000000    -1.837000000
H     1.983000000    -0.582000000    -2.626000000
C     0.200000000    -1.188000000    -0.665000000
H     0.454000000    -2.057000000    -1.267000000
C    -0.765000000    -1.258000000     0.341000000
H    -1.372000000    -2.156000000     0.419000000
C    -1.025000000    -0.212000000     1.235000000
C    -2.136000000    -0.167000000     2.221000000
O    -3.144000000    -0.776000000     1.891000000
O    -2.093000000     0.440000000     3.244000000
