17
-99.18142
C     0.441000000    -0.411000000     1.314000000
H     0.878000000    -0.825000000     2.219000000
C     1.198000000    -0.335000000     0.212000000
H     2.255000000    -0.588000000     0.220000000
C     0.706000000     0.103000000    -1.016000000
C     1.599000000     0.315000000    -2.172000000
H     1.115000000     0.718000000    -3.064000000
H     2.534000000     0.824000000    -1.926000000
H     1.855000000    -0.679000000    -2.545000000
C    -0.649000000     0.397000000    -1.078000000
H    -1.099000000     0.653000000    -2.034000000
C    -1.491000000     0.238000000     0.026000000
H    -2.548000000     0.479000000    -0.045000000
C    -0.944000000    -0.178000000     1.277000000
C    -1.728000000    -0.209000000     2.541000000
O    -2.915000000     0.152000000     2.524000000
O    -1.209000000    -0.654000000     3.553000000
