17
-94.27033
C    -0.935000000     0.567000000    -0.953000000
H    -1.471000000     1.050000000    -1.766000000
C     0.398000000     0.913000000    -0.873000000
H     0.801000000     1.634000000    -1.580000000
C     1.192000000     0.338000000     0.078000000
C     2.608000000     0.739000000     0.290000000
H     2.596000000     1.510000000     1.063000000
H     3.119000000    -0.135000000     0.700000000
H     3.167000000     1.121000000    -0.567000000
C     0.633000000    -0.639000000     0.914000000
H     1.299000000    -1.086000000     1.647000000
C    -0.679000000    -0.995000000     0.803000000
H    -1.075000000    -1.801000000     1.415000000
C    -1.530000000    -0.373000000    -0.100000000
C    -3.019000000    -0.823000000    -0.257000000
O    -3.409000000    -1.875000000     0.150000000
O    -3.691000000    -0.142000000    -0.965000000
