17
-93.33245
C     0.470000000    -0.909000000     1.000000000
H     0.868000000    -1.543000000     1.788000000
C     1.055000000    -0.764000000    -0.232000000
H     2.107000000    -1.010000000    -0.349000000
C     0.534000000     0.197000000    -1.132000000
C     1.381000000     0.814000000    -2.227000000
H     2.275000000     1.140000000    -1.692000000
H     1.717000000     0.048000000    -2.929000000
H     1.011000000     1.716000000    -2.720000000
C    -0.705000000     0.744000000    -0.842000000
H    -1.152000000     1.406000000    -1.579000000
C    -1.409000000     0.397000000     0.331000000
H    -2.419000000     0.778000000     0.458000000
C    -0.774000000    -0.354000000     1.326000000
C    -1.475000000    -0.831000000     2.620000000
O    -2.532000000    -0.239000000     2.806000000
O    -0.950000000    -1.583000000     3.375000000
