17
-86.03625
C     0.852000000     0.001000000     1.233000000
H     1.555000000    -0.221000000     2.031000000
C     1.353000000    -0.025000000    -0.099000000
H     2.414000000     0.065000000    -0.315000000
C     0.465000000    -0.059000000    -1.124000000
C     0.966000000     0.036000000    -2.493000000
H     0.156000000    -0.013000000    -3.224000000
H     1.650000000     0.830000000    -2.799000000
H     1.532000000    -0.852000000    -2.780000000
C    -0.902000000    -0.037000000    -0.850000000
H    -1.523000000    -0.019000000    -1.742000000
C    -1.452000000     0.029000000     0.393000000
H    -2.517000000    -0.066000000     0.591000000
C    -0.578000000     0.022000000     1.435000000
C    -1.157000000     0.121000000     2.857000000
O    -2.339000000     0.221000000     3.043000000
O    -0.469000000    -0.029000000     3.848000000
