17
-90.14258
C    -0.111000000     1.163000000     0.932000000
H    -0.099000000     2.003000000     1.621000000
C     0.843000000     1.054000000    -0.074000000
H     1.685000000     1.741000000    -0.097000000
C     0.821000000    -0.042000000    -0.960000000
C     1.840000000    -0.163000000    -2.031000000
H     2.391000000    -1.090000000    -1.862000000
H     1.274000000    -0.219000000    -2.964000000
H     2.459000000     0.737000000    -2.031000000
C    -0.094000000    -1.029000000    -0.785000000
H    -0.180000000    -1.889000000    -1.443000000
C    -1.084000000    -0.910000000     0.252000000
H    -1.874000000    -1.642000000     0.404000000
C    -1.046000000     0.114000000     1.148000000
C    -2.043000000     0.130000000     2.290000000
O    -3.090000000    -0.507000000     2.271000000
O    -1.687000000     0.555000000     3.325000000
