17
-97.96402
C     0.348000000    -1.118000000     0.865000000
H     0.798000000    -1.899000000     1.472000000
C     0.973000000    -0.786000000    -0.345000000
H     1.795000000    -1.396000000    -0.709000000
C     0.553000000     0.289000000    -1.076000000
C     1.356000000     0.744000000    -2.276000000
H     2.293000000     0.208000000    -2.438000000
H     0.721000000     0.561000000    -3.145000000
H     1.443000000     1.823000000    -2.129000000
C    -0.587000000     0.989000000    -0.675000000
H    -0.951000000     1.856000000    -1.221000000
C    -1.251000000     0.563000000     0.488000000
H    -2.198000000     1.082000000     0.613000000
C    -0.739000000    -0.406000000     1.359000000
C    -1.376000000    -0.756000000     2.711000000
O    -2.116000000     0.048000000     3.298000000
O    -1.054000000    -1.794000000     3.209000000
