17
-90.61272
C     0.062000000    -0.353000000     1.394000000
H     0.159000000    -0.760000000     2.397000000
C     0.350000000    -1.179000000     0.328000000
H     0.711000000    -2.177000000     0.563000000
C     0.215000000    -0.714000000    -0.972000000
C     0.556000000    -1.670000000    -2.115000000
H    -0.069000000    -2.566000000    -2.104000000
H     0.519000000    -1.184000000    -3.092000000
H     1.574000000    -1.990000000    -1.885000000
C    -0.199000000     0.574000000    -1.195000000
H    -0.337000000     0.994000000    -2.188000000
C    -0.532000000     1.490000000    -0.160000000
H    -0.910000000     2.471000000    -0.436000000
C    -0.322000000     0.967000000     1.192000000
C    -0.467000000     1.830000000     2.427000000
O    -0.848000000     2.983000000     2.365000000
O    -0.460000000     1.287000000     3.488000000
