17
-87.62949
C    -1.242000000    -0.464000000     0.636000000
H    -2.210000000    -0.831000000     0.967000000
C    -0.921000000    -0.595000000    -0.671000000
H    -1.627000000    -1.175000000    -1.260000000
C     0.259000000    -0.061000000    -1.196000000
C     0.569000000    -0.291000000    -2.656000000
H    -0.099000000     0.313000000    -3.275000000
H     1.599000000    -0.068000000    -2.942000000
H     0.360000000    -1.343000000    -2.859000000
C     1.220000000     0.335000000    -0.306000000
H     2.238000000     0.560000000    -0.614000000
C     0.897000000     0.472000000     1.022000000
H     1.648000000     0.904000000     1.678000000
C    -0.379000000     0.243000000     1.482000000
C    -0.650000000     0.487000000     2.961000000
O     0.118000000     1.138000000     3.633000000
O    -1.783000000     0.384000000     3.398000000
