17
-96.16056
C     0.656000000    -0.390000000     1.303000000
H     1.099000000    -0.768000000     2.220000000
C     0.803000000    -1.065000000     0.025000000
H     1.366000000    -1.994000000     0.059000000
C     0.076000000    -0.622000000    -1.088000000
C     0.144000000    -1.354000000    -2.378000000
H     1.054000000    -0.988000000    -2.858000000
H     0.254000000    -2.410000000    -2.123000000
H    -0.710000000    -1.193000000    -3.039000000
C    -0.589000000     0.578000000    -1.042000000
H    -0.937000000     1.007000000    -1.978000000
C    -0.717000000     1.267000000     0.192000000
H    -1.239000000     2.221000000     0.174000000
C    -0.142000000     0.791000000     1.397000000
C    -0.264000000     1.498000000     2.698000000
O    -1.077000000     2.406000000     2.735000000
O     0.221000000     1.017000000     3.710000000
