17
-87.69178
C     0.111000000    -1.193000000    -0.816000000
H     0.274000000    -2.008000000    -1.517000000
C     0.059000000     0.048000000    -1.296000000
H     0.203000000     0.152000000    -2.369000000
C    -0.138000000     1.150000000    -0.460000000
C     0.100000000     2.559000000    -0.963000000
H     0.131000000     3.309000000    -0.170000000
H     0.959000000     2.586000000    -1.637000000
H    -0.766000000     2.821000000    -1.574000000
C    -0.477000000     0.845000000     0.846000000
H    -0.588000000     1.670000000     1.546000000
C    -0.350000000    -0.436000000     1.414000000
H    -0.395000000    -0.547000000     2.495000000
C     0.024000000    -1.465000000     0.558000000
C     0.225000000    -2.805000000     1.141000000
O     0.178000000    -2.938000000     2.345000000
O     0.445000000    -3.742000000     0.462000000
