17
-98.92929
C    -0.545000000     1.311000000     0.307000000
H    -1.065000000     2.251000000     0.471000000
C    -0.798000000     0.524000000    -0.781000000
H    -1.546000000     0.890000000    -1.479000000
C    -0.179000000    -0.688000000    -1.022000000
C    -0.598000000    -1.389000000    -2.315000000
H    -0.548000000    -0.675000000    -3.140000000
H     0.069000000    -2.226000000    -2.534000000
H    -1.618000000    -1.726000000    -2.123000000
C     0.892000000    -1.092000000    -0.170000000
H     1.463000000    -1.982000000    -0.424000000
C     1.095000000    -0.357000000     1.019000000
H     1.841000000    -0.710000000     1.726000000
C     0.346000000     0.823000000     1.298000000
C     0.438000000     1.505000000     2.673000000
O     0.988000000     0.978000000     3.635000000
O    -0.237000000     2.570000000     2.862000000
