17
-96.34765
C    -1.258000000     0.158000000     0.748000000
H    -2.187000000     0.334000000     1.284000000
C    -1.142000000     0.162000000    -0.635000000
H    -2.114000000     0.314000000    -1.097000000
C     0.062000000    -0.087000000    -1.283000000
C     0.102000000    -0.224000000    -2.722000000
H     0.669000000    -1.139000000    -2.904000000
H    -0.861000000    -0.293000000    -3.233000000
H     0.733000000     0.514000000    -3.221000000
C     1.202000000    -0.154000000    -0.493000000
H     2.188000000    -0.322000000    -0.918000000
C     1.143000000    -0.094000000     0.894000000
H     1.951000000    -0.442000000     1.533000000
C    -0.083000000     0.152000000     1.539000000
C    -0.124000000     0.331000000     3.079000000
O     0.615000000    -0.364000000     3.805000000
O    -0.903000000     1.149000000     3.625000000
