17
-95.68986
C    -1.259000000     0.003000000     0.729000000
H    -2.288000000     0.074000000     1.074000000
C    -1.100000000     0.298000000    -0.641000000
H    -1.948000000     0.449000000    -1.303000000
C     0.175000000     0.194000000    -1.191000000
C     0.274000000     0.554000000    -2.680000000
H     0.074000000    -0.307000000    -3.321000000
H    -0.403000000     1.379000000    -2.911000000
H     1.300000000     0.877000000    -2.871000000
C     1.270000000    -0.030000000    -0.403000000
H     2.237000000    -0.171000000    -0.879000000
C     1.090000000    -0.323000000     0.980000000
H     1.946000000    -0.633000000     1.575000000
C    -0.188000000    -0.334000000     1.554000000
C    -0.342000000    -0.554000000     3.021000000
O     0.609000000    -0.694000000     3.805000000
O    -1.445000000    -0.782000000     3.465000000
