17
-87.50394
C    -0.283000000     1.371000000     0.573000000
H    -0.549000000     2.370000000     0.907000000
C    -0.665000000     0.984000000    -0.711000000
H    -1.232000000     1.666000000    -1.338000000
C    -0.373000000    -0.324000000    -1.128000000
C    -0.682000000    -0.792000000    -2.537000000
H    -1.513000000    -1.484000000    -2.387000000
H    -1.049000000     0.065000000    -3.105000000
H     0.163000000    -1.303000000    -3.002000000
C     0.402000000    -1.221000000    -0.300000000
H     0.643000000    -2.240000000    -0.594000000
C     0.831000000    -0.747000000     0.908000000
H     1.419000000    -1.403000000     1.545000000
C     0.422000000     0.482000000     1.411000000
C     0.760000000     0.825000000     2.818000000
O     1.637000000     0.256000000     3.402000000
O     0.065000000     1.499000000     3.542000000
