17
-92.12371
C    -0.501000000     1.237000000     0.604000000
H    -1.055000000     2.085000000     0.999000000
C    -0.984000000     0.522000000    -0.561000000
H    -1.809000000     0.964000000    -1.114000000
C    -0.456000000    -0.666000000    -0.957000000
C    -1.049000000    -1.336000000    -2.158000000
H    -2.091000000    -1.076000000    -2.357000000
H    -0.549000000    -0.983000000    -3.062000000
H    -0.845000000    -2.407000000    -2.099000000
C     0.674000000    -1.199000000    -0.266000000
H     1.099000000    -2.111000000    -0.679000000
C     1.287000000    -0.339000000     0.721000000
H     2.124000000    -0.788000000     1.250000000
C     0.572000000     0.766000000     1.298000000
C     1.098000000     1.568000000     2.478000000
O     2.065000000     1.216000000     3.075000000
O     0.422000000     2.549000000     2.828000000
