17
-98.46517
C    -0.452000000     1.332000000    -0.064000000
H    -0.775000000     2.342000000    -0.306000000
C    -0.349000000     0.467000000    -1.142000000
H    -0.502000000     1.027000000    -2.061000000
C     0.110000000    -0.820000000    -0.957000000
C     0.236000000    -1.732000000    -2.185000000
H    -0.164000000    -2.699000000    -1.873000000
H    -0.350000000    -1.381000000    -3.037000000
H     1.286000000    -1.789000000    -2.481000000
C     0.357000000    -1.237000000     0.353000000
H     0.634000000    -2.254000000     0.618000000
C     0.226000000    -0.353000000     1.436000000
H     0.470000000    -0.735000000     2.425000000
C    -0.084000000     0.966000000     1.233000000
C    -0.217000000     2.013000000     2.366000000
O     0.498000000     1.810000000     3.372000000
O    -0.926000000     3.050000000     2.305000000
