17
-86.83134
C    -0.231000000     1.354000000     0.393000000
H    -0.286000000     2.432000000     0.516000000
C    -0.381000000     0.849000000    -0.899000000
H    -0.490000000     1.510000000    -1.755000000
C    -0.107000000    -0.502000000    -1.115000000
C     0.003000000    -0.990000000    -2.624000000
H    -0.857000000    -0.568000000    -3.146000000
H     0.933000000    -0.617000000    -3.058000000
H     0.066000000    -2.080000000    -2.599000000
C     0.062000000    -1.366000000     0.010000000
H     0.471000000    -2.369000000    -0.079000000
C     0.087000000    -0.818000000     1.338000000
H     0.252000000    -1.540000000     2.135000000
C     0.039000000     0.542000000     1.492000000
C     0.044000000     1.164000000     2.788000000
O     0.523000000     0.606000000     3.753000000
O    -0.133000000     2.398000000     2.858000000
