17
-93.55938
C     0.391000000     1.390000000     0.153000000
H     0.681000000     2.437000000     0.182000000
C    -0.526000000     1.024000000    -0.791000000
H    -1.116000000     1.727000000    -1.373000000
C    -0.920000000    -0.371000000    -0.758000000
C    -1.807000000    -0.959000000    -1.869000000
H    -1.724000000    -0.399000000    -2.803000000
H    -1.513000000    -1.991000000    -2.070000000
H    -2.869000000    -0.994000000    -1.620000000
C    -0.259000000    -1.237000000     0.153000000
H    -0.404000000    -2.313000000     0.200000000
C     0.707000000    -0.808000000     1.030000000
H     1.179000000    -1.457000000     1.763000000
C     1.077000000     0.525000000     1.022000000
C     2.160000000     1.035000000     1.953000000
O     2.899000000     0.231000000     2.468000000
O     2.037000000     2.164000000     2.357000000
