17
-90.00838
C    -1.287000000     0.343000000    -0.714000000
H    -2.144000000     0.730000000    -1.260000000
C    -0.144000000     1.169000000    -0.558000000
H    -0.126000000     2.221000000    -0.832000000
C     0.981000000     0.699000000     0.172000000
C     2.101000000     1.720000000     0.511000000
H     1.671000000     2.723000000     0.545000000
H     2.756000000     1.540000000     1.366000000
H     2.788000000     1.979000000    -0.297000000
C     1.013000000    -0.640000000     0.656000000
H     1.765000000    -1.009000000     1.349000000
C    -0.052000000    -1.465000000     0.436000000
H    -0.047000000    -2.501000000     0.765000000
C    -1.210000000    -0.960000000    -0.295000000
C    -2.349000000    -1.930000000    -0.578000000
O    -2.260000000    -3.117000000    -0.381000000
O    -3.450000000    -1.501000000    -0.890000000
