17
-98.84207
C     0.051000000     1.069000000     1.031000000
H     0.093000000     1.946000000     1.672000000
C    -0.888000000     0.979000000    -0.040000000
H    -1.692000000     1.706000000    -0.127000000
C    -0.766000000    -0.032000000    -0.972000000
C    -1.833000000    -0.234000000    -2.073000000
H    -2.460000000     0.649000000    -2.211000000
H    -1.377000000    -0.410000000    -3.049000000
H    -2.420000000    -1.119000000    -1.814000000
C     0.245000000    -0.985000000    -0.803000000
H     0.444000000    -1.642000000    -1.646000000
C     1.207000000    -0.892000000     0.239000000
H     1.937000000    -1.695000000     0.298000000
C     1.052000000     0.107000000     1.171000000
C     1.885000000     0.171000000     2.417000000
O     2.730000000    -0.715000000     2.662000000
O     1.788000000     1.104000000     3.242000000
