17
-96.48951
C    -0.480000000     0.452000000     1.344000000
H    -0.854000000     0.746000000     2.321000000
C    -1.096000000    -0.490000000     0.518000000
H    -1.969000000    -1.000000000     0.917000000
C    -0.622000000    -0.752000000    -0.765000000
C    -1.303000000    -1.776000000    -1.640000000
H    -2.340000000    -2.033000000    -1.417000000
H    -1.316000000    -1.463000000    -2.686000000
H    -0.643000000    -2.642000000    -1.559000000
C     0.541000000    -0.137000000    -1.193000000
H     0.968000000    -0.304000000    -2.179000000
C     1.195000000     0.722000000    -0.279000000
H     2.187000000     1.005000000    -0.621000000
C     0.725000000     0.980000000     0.979000000
C     1.417000000     1.984000000     1.865000000
O     2.228000000     2.760000000     1.323000000
O     1.369000000     1.943000000     3.073000000
