17
-97.10696
C    -0.370000000    -0.252000000     1.407000000
H    -0.626000000    -0.566000000     2.415000000
C    -0.919000000    -0.891000000     0.259000000
H    -1.654000000    -1.680000000     0.398000000
C    -0.466000000    -0.517000000    -1.047000000
C    -1.104000000    -1.170000000    -2.276000000
H    -0.405000000    -1.706000000    -2.922000000
H    -1.909000000    -1.815000000    -1.919000000
H    -1.498000000    -0.366000000    -2.902000000
C     0.597000000     0.338000000    -1.113000000
H     0.897000000     0.659000000    -2.108000000
C     1.129000000     0.941000000     0.020000000
H     1.846000000     1.745000000    -0.131000000
C     0.668000000     0.679000000     1.280000000
C     1.131000000     1.371000000     2.567000000
O     1.934000000     2.302000000     2.475000000
O     0.751000000     0.931000000     3.594000000
