17
-94.04870
C    -1.445000000    -0.068000000    -0.012000000
H    -2.527000000     0.031000000    -0.047000000
C    -0.689000000     1.073000000     0.201000000
H    -1.150000000     2.013000000     0.492000000
C     0.691000000     0.983000000     0.233000000
C     1.496000000     2.211000000     0.541000000
H     0.950000000     2.913000000     1.174000000
H     2.433000000     1.986000000     1.055000000
H     1.605000000     2.729000000    -0.414000000
C     1.367000000    -0.199000000    -0.101000000
H     2.452000000    -0.263000000    -0.106000000
C     0.587000000    -1.394000000    -0.270000000
H     1.023000000    -2.369000000    -0.472000000
C    -0.823000000    -1.270000000    -0.238000000
C    -1.760000000    -2.442000000    -0.548000000
O    -1.416000000    -3.575000000    -0.283000000
O    -2.802000000    -2.366000000    -1.200000000
