17
-94.10316
C     0.122000000    -0.304000000     1.478000000
H    -0.012000000    -0.479000000     2.542000000
C    -0.963000000    -0.663000000     0.659000000
H    -1.756000000    -1.249000000     1.115000000
C    -0.983000000    -0.282000000    -0.692000000
C    -2.143000000    -0.584000000    -1.560000000
H    -1.832000000    -1.372000000    -2.250000000
H    -3.091000000    -0.885000000    -1.111000000
H    -2.327000000     0.366000000    -2.067000000
C     0.167000000     0.247000000    -1.267000000
H     0.230000000     0.433000000    -2.336000000
C     1.192000000     0.692000000    -0.428000000
H     2.001000000     1.266000000    -0.874000000
C     1.194000000     0.346000000     0.928000000
C     2.380000000     0.769000000     1.755000000
O     3.242000000     1.399000000     1.233000000
O     2.577000000     0.298000000     2.876000000
