17
-89.79081
C    -0.005000000     0.541000000     1.353000000
H    -0.215000000     0.836000000     2.378000000
C    -0.559000000    -0.649000000     0.889000000
H    -0.875000000    -1.387000000     1.623000000
C    -0.475000000    -1.062000000    -0.395000000
C    -1.244000000    -2.314000000    -0.791000000
H    -1.185000000    -2.519000000    -1.862000000
H    -0.845000000    -3.113000000    -0.163000000
H    -2.294000000    -2.251000000    -0.497000000
C     0.257000000    -0.281000000    -1.306000000
H     0.313000000    -0.585000000    -2.348000000
C     0.756000000     0.915000000    -0.866000000
H     1.288000000     1.479000000    -1.628000000
C     0.678000000     1.341000000     0.464000000
C     1.287000000     2.652000000     0.919000000
O     1.993000000     3.308000000     0.201000000
O     1.124000000     3.095000000     2.030000000
