17
-98.27512
C     0.448000000     0.055000000     1.375000000
H     0.611000000     0.146000000     2.446000000
C    -0.776000000    -0.483000000     0.911000000
H    -1.559000000    -0.793000000     1.598000000
C    -1.047000000    -0.505000000    -0.432000000
C    -2.274000000    -1.132000000    -0.897000000
H    -3.137000000    -0.916000000    -0.264000000
H    -2.512000000    -0.790000000    -1.907000000
H    -2.142000000    -2.215000000    -0.858000000
C    -0.159000000     0.042000000    -1.331000000
H    -0.372000000    -0.024000000    -2.395000000
C     1.016000000     0.647000000    -0.841000000
H     1.832000000     0.945000000    -1.495000000
C     1.321000000     0.610000000     0.504000000
C     2.607000000     1.251000000     1.050000000
O     3.469000000     1.580000000     0.271000000
O     2.666000000     1.589000000     2.265000000
