17
-96.68700
C     0.524000000    -0.645000000     1.153000000
H     0.904000000    -1.181000000     2.019000000
C    -0.731000000    -0.929000000     0.625000000
H    -1.360000000    -1.712000000     1.041000000
C    -1.118000000    -0.249000000    -0.530000000
C    -2.423000000    -0.591000000    -1.152000000
H    -2.254000000    -0.596000000    -2.231000000
H    -2.785000000    -1.563000000    -0.810000000
H    -3.151000000     0.182000000    -0.900000000
C    -0.279000000     0.740000000    -1.048000000
H    -0.656000000     1.238000000    -1.937000000
C     0.918000000     1.099000000    -0.408000000
H     1.600000000     1.834000000    -0.828000000
C     1.370000000     0.392000000     0.704000000
C     2.803000000     0.541000000     1.231000000
O     3.498000000     1.462000000     0.818000000
O     3.145000000    -0.021000000     2.246000000
