17
-91.02828
C    -0.418000000     1.079000000     0.968000000
H    -0.923000000     1.815000000     1.588000000
C    -1.293000000     0.166000000     0.368000000
H    -2.334000000     0.085000000     0.669000000
C    -0.798000000    -0.723000000    -0.558000000
C    -1.635000000    -1.769000000    -1.208000000
H    -2.609000000    -1.805000000    -0.714000000
H    -1.673000000    -1.483000000    -2.261000000
H    -1.170000000    -2.738000000    -1.017000000
C     0.504000000    -0.669000000    -0.941000000
H     0.878000000    -1.298000000    -1.745000000
C     1.360000000     0.270000000    -0.366000000
H     2.425000000     0.131000000    -0.538000000
C     0.918000000     1.107000000     0.622000000
C     1.958000000     1.806000000     1.446000000
O     3.130000000     1.600000000     1.226000000
O     1.674000000     2.418000000     2.468000000
