17
-101.05025
C     0.236000000    -1.046000000     1.096000000
H     0.320000000    -1.772000000     1.901000000
C    -1.029000000    -0.508000000     0.762000000
H    -1.931000000    -0.624000000     1.357000000
C    -1.102000000     0.401000000    -0.353000000
C    -2.401000000     1.063000000    -0.711000000
H    -3.324000000     0.662000000    -0.287000000
H    -2.298000000     2.129000000    -0.500000000
H    -2.501000000     0.974000000    -1.795000000
C     0.025000000     0.803000000    -1.033000000
H    -0.066000000     1.626000000    -1.736000000
C     1.285000000     0.298000000    -0.626000000
H     2.212000000     0.584000000    -1.117000000
C     1.400000000    -0.628000000     0.395000000
C     2.724000000    -1.204000000     0.758000000
O     3.739000000    -0.676000000     0.298000000
O     2.718000000    -2.082000000     1.598000000
