17
-90.53675
C     1.024000000    -0.567000000     0.944000000
H     1.705000000    -0.898000000     1.725000000
C    -0.396000000    -0.698000000     1.089000000
H    -0.890000000    -1.164000000     1.938000000
C    -1.197000000    -0.112000000     0.133000000
C    -2.746000000    -0.248000000     0.236000000
H    -3.075000000    -1.158000000     0.743000000
H    -3.002000000     0.502000000     0.987000000
H    -3.386000000    -0.057000000    -0.628000000
C    -0.675000000     0.502000000    -0.998000000
H    -1.375000000     0.747000000    -1.792000000
C     0.735000000     0.716000000    -1.129000000
H     1.097000000     1.336000000    -1.945000000
C     1.589000000     0.180000000    -0.173000000
C     3.111000000     0.227000000    -0.310000000
O     3.582000000     0.692000000    -1.392000000
O     3.891000000     0.005000000     0.564000000
