17
-91.78586
C     0.570000000    -1.128000000     0.757000000
H     0.886000000    -2.076000000     1.184000000
C    -0.707000000    -1.089000000     0.125000000
H    -1.304000000    -1.998000000     0.124000000
C    -1.123000000     0.056000000    -0.498000000
C    -2.416000000     0.049000000    -1.261000000
H    -2.187000000    -0.251000000    -2.286000000
H    -3.039000000    -0.787000000    -0.937000000
H    -2.993000000     0.974000000    -1.188000000
C    -0.315000000     1.196000000    -0.551000000
H    -0.660000000     2.094000000    -1.057000000
C     0.999000000     1.167000000     0.035000000
H     1.709000000     1.984000000    -0.066000000
C     1.392000000     0.041000000     0.757000000
C     2.727000000    -0.076000000     1.403000000
O     3.556000000     0.796000000     1.289000000
O     2.904000000    -0.955000000     2.166000000
