17
-93.39981
C     0.590000000    -0.915000000     0.920000000
H     0.776000000    -1.670000000     1.680000000
C    -0.637000000    -1.000000000     0.366000000
H    -1.255000000    -1.844000000     0.660000000
C    -1.098000000    -0.003000000    -0.547000000
C    -2.507000000    -0.105000000    -1.066000000
H    -2.714000000    -1.167000000    -1.214000000
H    -3.220000000     0.357000000    -0.380000000
H    -2.721000000     0.280000000    -2.065000000
C    -0.282000000     1.091000000    -0.803000000
H    -0.669000000     1.961000000    -1.328000000
C     1.054000000     1.066000000    -0.287000000
H     1.689000000     1.913000000    -0.535000000
C     1.417000000     0.116000000     0.644000000
C     2.808000000     0.025000000     1.164000000
O     3.649000000     0.881000000     0.979000000
O     3.116000000    -0.988000000     1.805000000
