17
-94.90234
C     0.934000000    -0.635000000     0.996000000
H     1.555000000    -1.239000000     1.652000000
C    -0.451000000    -0.882000000     0.959000000
H    -0.850000000    -1.617000000     1.653000000
C    -1.183000000    -0.242000000    -0.027000000
C    -2.662000000    -0.478000000    -0.105000000
H    -2.835000000    -1.004000000    -1.047000000
H    -3.086000000    -1.069000000     0.710000000
H    -3.243000000     0.445000000    -0.061000000
C    -0.642000000     0.714000000    -0.938000000
H    -1.171000000     1.215000000    -1.744000000
C     0.743000000     0.961000000    -0.824000000
H     1.193000000     1.617000000    -1.566000000
C     1.537000000     0.301000000     0.106000000
C     3.020000000     0.590000000     0.142000000
O     3.337000000     1.548000000    -0.469000000
O     3.797000000    -0.227000000     0.567000000
