17
-87.89341
C     0.460000000     0.987000000     0.934000000
H     0.666000000     1.822000000     1.600000000
C    -0.898000000     0.777000000     0.580000000
H    -1.622000000     1.525000000     0.895000000
C    -1.186000000    -0.285000000    -0.299000000
C    -2.579000000    -0.303000000    -0.753000000
H    -2.723000000     0.382000000    -1.592000000
H    -2.784000000    -1.345000000    -1.007000000
H    -3.224000000     0.035000000     0.060000000
C    -0.153000000    -1.038000000    -0.827000000
H    -0.396000000    -1.747000000    -1.614000000
C     1.121000000    -0.853000000    -0.393000000
H     1.851000000    -1.499000000    -0.874000000
C     1.474000000     0.134000000     0.463000000
C     2.912000000     0.363000000     0.894000000
O     3.844000000    -0.103000000     0.211000000
O     3.235000000     1.149000000     1.718000000
