17
-89.38035
C     0.405000000     0.114000000     1.373000000
H     0.722000000     0.116000000     2.413000000
C    -0.297000000    -0.974000000     0.857000000
H    -0.456000000    -1.829000000     1.510000000
C    -0.733000000    -0.861000000    -0.466000000
C    -1.450000000    -2.072000000    -0.969000000
H    -2.247000000    -2.122000000    -0.223000000
H    -1.963000000    -2.039000000    -1.932000000
H    -0.720000000    -2.881000000    -0.894000000
C    -0.332000000     0.161000000    -1.323000000
H    -0.666000000     0.272000000    -2.351000000
C     0.378000000     1.222000000    -0.782000000
H     0.679000000     2.015000000    -1.461000000
C     0.785000000     1.205000000     0.544000000
C     1.670000000     2.278000000     1.040000000
O     2.579000000     2.807000000     0.421000000
O     1.639000000     2.592000000     2.237000000
