17
-96.37797
C     0.491000000     0.975000000     1.013000000
H     0.686000000     1.815000000     1.675000000
C    -0.820000000     0.782000000     0.658000000
H    -1.535000000     1.456000000     1.124000000
C    -1.169000000    -0.167000000    -0.295000000
C    -2.575000000    -0.297000000    -0.777000000
H    -3.074000000    -1.080000000    -0.202000000
H    -3.070000000     0.667000000    -0.639000000
H    -2.670000000    -0.470000000    -1.851000000
C    -0.239000000    -0.964000000    -0.860000000
H    -0.456000000    -1.653000000    -1.672000000
C     1.123000000    -0.734000000    -0.580000000
H     1.785000000    -1.299000000    -1.232000000
C     1.527000000     0.124000000     0.463000000
C     2.961000000     0.267000000     0.907000000
O     3.874000000    -0.167000000     0.229000000
O     3.156000000     0.743000000     2.032000000
