17
-95.31116
C     0.193000000     1.119000000     1.027000000
H     0.270000000     1.933000000     1.743000000
C    -1.074000000     0.639000000     0.602000000
H    -1.995000000     1.050000000     1.007000000
C    -1.090000000    -0.273000000    -0.464000000
C    -2.360000000    -0.759000000    -1.054000000
H    -3.173000000    -0.044000000    -0.913000000
H    -2.218000000    -1.011000000    -2.107000000
H    -2.628000000    -1.653000000    -0.488000000
C     0.085000000    -0.814000000    -1.004000000
H     0.046000000    -1.600000000    -1.755000000
C     1.268000000    -0.436000000    -0.463000000
H     2.108000000    -0.917000000    -0.957000000
C     1.376000000     0.450000000     0.621000000
C     2.703000000     0.755000000     1.204000000
O     3.678000000     0.326000000     0.635000000
O     2.819000000     1.234000000     2.358000000
