17
-90.49800
C     0.802000000    -0.753000000     0.982000000
H     1.281000000    -1.203000000     1.848000000
C    -0.444000000    -1.118000000     0.529000000
H    -0.873000000    -1.970000000     1.051000000
C    -1.089000000    -0.385000000    -0.442000000
C    -2.470000000    -0.704000000    -1.002000000
H    -3.142000000    -0.099000000    -0.390000000
H    -2.637000000    -0.457000000    -2.052000000
H    -2.728000000    -1.754000000    -0.846000000
C    -0.360000000     0.654000000    -0.983000000
H    -0.812000000     1.276000000    -1.751000000
C     0.909000000     1.011000000    -0.597000000
H     1.328000000     1.842000000    -1.159000000
C     1.492000000     0.358000000     0.497000000
C     2.630000000     0.887000000     1.205000000
O     3.253000000     1.828000000     0.737000000
O     2.861000000     0.591000000     2.378000000
