17
-98.88040
C     0.683000000     0.505000000     1.173000000
H     1.106000000     0.860000000     2.110000000
C    -0.592000000     0.846000000     0.820000000
H    -1.177000000     1.440000000     1.518000000
C    -1.176000000     0.265000000    -0.265000000
C    -2.554000000     0.539000000    -0.672000000
H    -2.892000000     1.577000000    -0.713000000
H    -2.662000000     0.203000000    -1.706000000
H    -3.210000000    -0.052000000    -0.030000000
C    -0.423000000    -0.587000000    -1.078000000
H    -0.820000000    -1.076000000    -1.963000000
C     0.928000000    -0.803000000    -0.794000000
H     1.530000000    -1.408000000    -1.466000000
C     1.455000000    -0.327000000     0.398000000
C     2.867000000    -0.564000000     0.780000000
O     3.652000000    -1.123000000    -0.036000000
O     3.288000000    -0.293000000     1.924000000
