17
-93.35835
C    -0.557000000    -0.756000000     1.129000000
H    -1.140000000    -1.251000000     1.902000000
C    -1.206000000     0.051000000     0.245000000
H    -2.249000000     0.344000000     0.333000000
C    -0.567000000     0.680000000    -0.812000000
C    -1.421000000     1.574000000    -1.733000000
H    -0.970000000     1.635000000    -2.725000000
H    -2.447000000     1.200000000    -1.745000000
H    -1.440000000     2.604000000    -1.372000000
C     0.761000000     0.430000000    -1.023000000
H     1.362000000     1.049000000    -1.685000000
C     1.455000000    -0.352000000    -0.126000000
H     2.533000000    -0.449000000    -0.228000000
C     0.779000000    -0.945000000     0.969000000
C     1.496000000    -1.787000000     1.972000000
O     2.716000000    -1.759000000     1.989000000
O     0.894000000    -2.267000000     2.918000000
