17
-97.81993
C     0.872000000     0.394000000     1.169000000
H     1.342000000     0.723000000     2.092000000
C    -0.432000000     0.848000000     0.957000000
H    -0.868000000     1.591000000     1.620000000
C    -1.142000000     0.403000000    -0.183000000
C    -2.548000000     0.885000000    -0.542000000
H    -2.575000000     1.178000000    -1.594000000
H    -3.329000000     0.173000000    -0.267000000
H    -2.786000000     1.746000000     0.087000000
C    -0.548000000    -0.547000000    -1.059000000
H    -1.166000000    -0.897000000    -1.881000000
C     0.768000000    -0.987000000    -0.792000000
H     1.140000000    -1.760000000    -1.459000000
C     1.496000000    -0.415000000     0.239000000
C     2.868000000    -0.960000000     0.502000000
O     3.507000000    -1.390000000    -0.473000000
O     3.396000000    -0.979000000     1.589000000
