17
-91.89917
C    -0.581000000    -1.267000000     0.441000000
H    -1.080000000    -2.114000000     0.904000000
C    -1.339000000    -0.225000000    -0.110000000
H    -2.425000000    -0.196000000    -0.144000000
C    -0.656000000     0.926000000    -0.454000000
C    -1.533000000     2.096000000    -0.987000000
H    -2.423000000     2.165000000    -0.359000000
H    -0.952000000     3.003000000    -0.808000000
H    -1.869000000     2.022000000    -2.023000000
C     0.740000000     1.047000000    -0.428000000
H     1.386000000     1.831000000    -0.815000000
C     1.454000000    -0.083000000     0.106000000
H     2.536000000    -0.142000000     0.018000000
C     0.851000000    -1.218000000     0.589000000
C     1.737000000    -2.323000000     1.185000000
O     2.855000000    -2.071000000     1.505000000
O     1.292000000    -3.459000000     1.386000000
