17
-96.13544
C    -0.676000000    -1.274000000     0.363000000
H    -1.275000000    -2.097000000     0.744000000
C    -1.210000000     0.022000000     0.360000000
H    -2.212000000     0.140000000     0.764000000
C    -0.549000000     1.122000000    -0.046000000
C    -1.169000000     2.476000000    -0.104000000
H    -2.046000000     2.293000000    -0.729000000
H    -1.481000000     2.922000000     0.842000000
H    -0.470000000     3.161000000    -0.588000000
C     0.778000000     0.946000000    -0.478000000
H     1.398000000     1.808000000    -0.708000000
C     1.406000000    -0.304000000    -0.476000000
H     2.403000000    -0.468000000    -0.878000000
C     0.623000000    -1.448000000    -0.073000000
C     1.295000000    -2.795000000     0.178000000
O     2.525000000    -2.867000000     0.063000000
O     0.664000000    -3.632000000     0.774000000
