17
-87.83341
C     0.179000000    -1.044000000     1.020000000
H     0.182000000    -1.767000000     1.832000000
C    -0.983000000    -0.375000000     0.660000000
H    -1.906000000    -0.582000000     1.195000000
C    -1.065000000     0.554000000    -0.358000000
C    -2.440000000     1.212000000    -0.614000000
H    -2.357000000     1.969000000    -1.397000000
H    -3.181000000     0.478000000    -0.937000000
H    -2.804000000     1.617000000     0.332000000
C     0.145000000     0.902000000    -0.961000000
H     0.161000000     1.638000000    -1.761000000
C     1.352000000     0.277000000    -0.607000000
H     2.299000000     0.535000000    -1.075000000
C     1.383000000    -0.698000000     0.401000000
C     2.674000000    -1.324000000     0.781000000
O     3.677000000    -1.044000000     0.138000000
O     2.680000000    -2.346000000     1.357000000
