17
-93.46887
C    -0.967000000    -0.991000000    -0.649000000
H    -1.609000000    -1.658000000    -1.219000000
C    -0.368000000     0.128000000    -1.263000000
H    -0.651000000     0.404000000    -2.276000000
C     0.507000000     1.006000000    -0.596000000
C     0.993000000     2.297000000    -1.217000000
H     0.287000000     2.995000000    -1.672000000
H     1.549000000     2.764000000    -0.402000000
H     1.715000000     2.107000000    -2.014000000
C     0.792000000     0.752000000     0.777000000
H     1.295000000     1.434000000     1.457000000
C     0.285000000    -0.456000000     1.305000000
H     0.381000000    -0.708000000     2.359000000
C    -0.587000000    -1.333000000     0.677000000
C    -1.102000000    -2.549000000     1.412000000
O    -0.687000000    -2.827000000     2.498000000
O    -1.837000000    -3.360000000     0.831000000
