17
-86.72110
C    -0.381000000    -1.385000000    -0.007000000
H    -0.786000000    -2.393000000    -0.010000000
C    -1.225000000    -0.320000000    -0.096000000
H    -2.279000000    -0.586000000    -0.095000000
C    -0.780000000     0.962000000    -0.059000000
C    -1.705000000     2.151000000    -0.104000000
H    -1.299000000     2.950000000     0.519000000
H    -1.929000000     2.404000000    -1.143000000
H    -2.736000000     2.029000000     0.234000000
C     0.600000000     1.185000000     0.029000000
H     1.030000000     2.171000000    -0.131000000
C     1.488000000     0.095000000     0.068000000
H     2.571000000     0.188000000     0.055000000
C     0.977000000    -1.181000000     0.032000000
C     1.907000000    -2.415000000     0.171000000
O     3.063000000    -2.313000000     0.403000000
O     1.484000000    -3.538000000     0.133000000
