17
-94.98988
C    -0.286000000    -1.175000000     0.714000000
H    -0.507000000    -1.972000000     1.418000000
C    -1.219000000    -0.169000000     0.567000000
H    -2.091000000    -0.107000000     1.214000000
C    -0.815000000     0.905000000    -0.244000000
C    -1.853000000     1.951000000    -0.610000000
H    -2.817000000     1.439000000    -0.578000000
H    -1.929000000     2.698000000     0.183000000
H    -1.705000000     2.377000000    -1.605000000
C     0.550000000     1.014000000    -0.556000000
H     0.838000000     1.907000000    -1.106000000
C     1.452000000    -0.007000000    -0.366000000
H     2.491000000     0.106000000    -0.664000000
C     1.021000000    -1.118000000     0.266000000
C     2.043000000    -2.290000000     0.470000000
O     3.281000000    -2.118000000     0.341000000
O     1.550000000    -3.438000000     0.564000000
