17
-81.83608
C     0.553000000    -1.330000000     0.374000000
H     0.889000000    -2.338000000     0.602000000
C    -0.759000000    -0.955000000     0.447000000
H    -1.447000000    -1.773000000     0.642000000
C    -1.186000000     0.286000000     0.132000000
C    -2.616000000     0.651000000    -0.056000000
H    -3.176000000    -0.088000000    -0.633000000
H    -3.137000000     0.956000000     0.853000000
H    -2.693000000     1.511000000    -0.724000000
C    -0.279000000     1.185000000    -0.300000000
H    -0.693000000     2.175000000    -0.471000000
C     1.032000000     0.823000000    -0.367000000
H     1.750000000     1.639000000    -0.376000000
C     1.556000000    -0.397000000    -0.009000000
C     3.016000000    -0.687000000     0.010000000
O     3.787000000     0.074000000    -0.560000000
O     3.408000000    -1.727000000     0.429000000
