17
-91.83049
C     0.429000000    -1.341000000     0.357000000
H     0.618000000    -2.313000000     0.806000000
C    -0.910000000    -0.901000000     0.425000000
H    -1.685000000    -1.577000000     0.777000000
C    -1.162000000     0.418000000     0.084000000
C    -2.538000000     0.934000000     0.125000000
H    -2.584000000     1.627000000     0.968000000
H    -2.767000000     1.418000000    -0.827000000
H    -3.251000000     0.131000000     0.321000000
C    -0.129000000     1.282000000    -0.313000000
H    -0.392000000     2.331000000    -0.421000000
C     1.155000000     0.799000000    -0.527000000
H     2.005000000     1.422000000    -0.795000000
C     1.511000000    -0.474000000    -0.111000000
C     2.864000000    -1.095000000    -0.296000000
O     3.802000000    -0.431000000    -0.652000000
O     3.041000000    -2.223000000     0.072000000
