17
-92.86905
C     0.931000000    -0.962000000     0.680000000
H     1.478000000    -1.626000000     1.345000000
C    -0.454000000    -1.022000000     0.697000000
H    -0.977000000    -1.786000000     1.267000000
C    -1.187000000    -0.125000000     0.016000000
C    -2.676000000    -0.087000000     0.192000000
H    -3.031000000    -1.071000000     0.505000000
H    -2.943000000     0.731000000     0.865000000
H    -3.037000000     0.141000000    -0.813000000
C    -0.595000000     0.849000000    -0.780000000
H    -1.245000000     1.463000000    -1.398000000
C     0.721000000     0.950000000    -0.805000000
H     1.109000000     1.727000000    -1.459000000
C     1.546000000     0.082000000    -0.102000000
C     3.035000000     0.253000000    -0.050000000
O     3.640000000     0.947000000    -0.889000000
O     3.690000000    -0.471000000     0.734000000
