17
-94.80761
C     1.136000000    -0.818000000     0.452000000
H     1.885000000    -1.470000000     0.895000000
C     0.030000000    -0.445000000     1.273000000
H    -0.122000000    -0.847000000     2.271000000
C    -0.973000000     0.302000000     0.697000000
C    -2.313000000     0.579000000     1.379000000
H    -2.620000000     1.622000000     1.271000000
H    -3.038000000    -0.033000000     0.840000000
H    -2.332000000     0.384000000     2.453000000
C    -0.835000000     0.779000000    -0.599000000
H    -1.567000000     1.360000000    -1.155000000
C     0.245000000     0.449000000    -1.332000000
H     0.404000000     0.851000000    -2.330000000
C     1.289000000    -0.365000000    -0.844000000
C     2.597000000    -0.655000000    -1.590000000
O     2.681000000    -0.488000000    -2.745000000
O     3.533000000    -1.206000000    -0.937000000
