17
-93.07507
C    -0.844000000    -1.156000000    -0.313000000
H    -1.444000000    -1.950000000    -0.750000000
C    -0.133000000    -0.351000000    -1.226000000
H    -0.142000000    -0.684000000    -2.261000000
C     0.620000000     0.675000000    -0.753000000
C     1.533000000     1.406000000    -1.772000000
H     2.301000000     0.759000000    -2.202000000
H     0.934000000     1.742000000    -2.620000000
H     2.044000000     2.242000000    -1.290000000
C     0.711000000     0.887000000     0.575000000
H     1.549000000     1.538000000     0.814000000
C    -0.039000000     0.216000000     1.520000000
H     0.102000000     0.398000000     2.583000000
C    -0.924000000    -0.762000000     1.045000000
C    -1.868000000    -1.467000000     1.970000000
O    -2.051000000    -1.029000000     3.135000000
O    -2.351000000    -2.471000000     1.551000000
