17
-94.52218
C     0.593000000    -1.358000000    -0.173000000
H     1.052000000    -2.342000000    -0.131000000
C    -0.565000000    -1.029000000     0.528000000
H    -0.874000000    -1.876000000     1.135000000
C    -1.086000000     0.254000000     0.539000000
C    -2.251000000     0.529000000     1.494000000
H    -3.061000000    -0.162000000     1.254000000
H    -1.788000000     0.315000000     2.460000000
H    -2.639000000     1.550000000     1.499000000
C    -0.430000000     1.280000000    -0.105000000
H    -0.827000000     2.292000000    -0.114000000
C     0.743000000     0.980000000    -0.824000000
H     1.208000000     1.823000000    -1.328000000
C     1.266000000    -0.311000000    -0.854000000
C     2.544000000    -0.574000000    -1.599000000
O     2.989000000     0.261000000    -2.310000000
O     3.125000000    -1.640000000    -1.465000000
