17
-95.31918
C     1.466000000    -0.221000000    -0.132000000
H     2.539000000    -0.363000000    -0.228000000
C     0.543000000    -0.835000000    -0.942000000
H     0.881000000    -1.439000000    -1.781000000
C    -0.851000000    -0.567000000    -0.652000000
C    -1.867000000    -1.392000000    -1.273000000
H    -1.478000000    -1.884000000    -2.167000000
H    -2.087000000    -2.214000000    -0.588000000
H    -2.752000000    -0.859000000    -1.627000000
C    -1.240000000     0.410000000     0.299000000
H    -2.289000000     0.662000000     0.434000000
C    -0.299000000     1.197000000     0.910000000
H    -0.612000000     2.048000000     1.510000000
C     1.022000000     0.762000000     0.776000000
C     2.052000000     1.413000000     1.590000000
O     1.779000000     2.255000000     2.485000000
O     3.201000000     1.033000000     1.380000000
