17
-94.68282
C     1.197000000    -0.814000000     0.303000000
H     1.980000000    -1.559000000     0.417000000
C     0.625000000    -0.621000000    -0.926000000
H     1.070000000    -1.117000000    -1.785000000
C    -0.444000000     0.262000000    -1.098000000
C    -1.079000000     0.446000000    -2.543000000
H    -2.041000000    -0.061000000    -2.649000000
H    -1.177000000     1.530000000    -2.626000000
H    -0.390000000     0.094000000    -3.314000000
C    -1.040000000     0.790000000     0.050000000
H    -1.942000000     1.380000000    -0.096000000
C    -0.465000000     0.673000000     1.319000000
H    -1.015000000     1.108000000     2.150000000
C     0.674000000    -0.153000000     1.405000000
C     1.215000000    -0.555000000     2.766000000
O     0.624000000    -0.185000000     3.768000000
O     2.215000000    -1.212000000     2.861000000
