17
-94.75004
C     1.167000000    -0.830000000     0.331000000
H     1.924000000    -1.543000000     0.650000000
C     0.147000000    -1.199000000    -0.504000000
H     0.149000000    -2.096000000    -1.118000000
C    -0.877000000    -0.272000000    -0.789000000
C    -1.989000000    -0.760000000    -1.776000000
H    -1.673000000    -0.441000000    -2.771000000
H    -2.072000000    -1.843000000    -1.882000000
H    -3.005000000    -0.381000000    -1.642000000
C    -0.856000000     1.047000000    -0.259000000
H    -1.657000000     1.749000000    -0.477000000
C     0.069000000     1.281000000     0.773000000
H     0.000000000     2.198000000     1.353000000
C     1.138000000     0.392000000     1.003000000
C     2.269000000     0.787000000     2.069000000
O     2.422000000     1.994000000     2.388000000
O     2.848000000    -0.087000000     2.650000000
