17
-87.10349
C     1.204000000    -0.909000000    -0.105000000
H     2.011000000    -1.574000000    -0.402000000
C    -0.091000000    -1.183000000    -0.477000000
H    -0.240000000    -2.176000000    -0.893000000
C    -1.141000000    -0.325000000    -0.258000000
C    -2.515000000    -0.814000000    -0.552000000
H    -3.268000000    -0.035000000    -0.413000000
H    -2.686000000    -1.106000000    -1.590000000
H    -2.764000000    -1.605000000     0.159000000
C    -0.907000000     0.939000000     0.250000000
H    -1.751000000     1.625000000     0.257000000
C     0.372000000     1.228000000     0.624000000
H     0.557000000     2.201000000     1.071000000
C     1.460000000     0.416000000     0.341000000
C     2.847000000     0.943000000     0.663000000
O     3.064000000     2.076000000     0.975000000
O     3.844000000     0.306000000     0.348000000
