17
-96.80153
C    -1.404000000     0.202000000    -0.297000000
H    -2.446000000     0.376000000    -0.555000000
C    -0.428000000     0.175000000    -1.254000000
H    -0.757000000     0.146000000    -2.290000000
C     0.893000000    -0.112000000    -0.865000000
C     1.993000000    -0.167000000    -1.845000000
H     2.936000000     0.274000000    -1.515000000
H     2.146000000    -1.170000000    -2.250000000
H     1.590000000     0.416000000    -2.676000000
C     1.186000000    -0.188000000     0.502000000
H     2.211000000    -0.348000000     0.828000000
C     0.192000000    -0.110000000     1.441000000
H     0.526000000    -0.181000000     2.473000000
C    -1.143000000     0.164000000     1.055000000
C    -2.224000000     0.220000000     2.108000000
O    -1.827000000     0.038000000     3.254000000
O    -3.440000000     0.273000000     1.884000000
