17
-100.06991
C     1.244000000    -0.789000000     0.098000000
H     2.134000000    -1.412000000     0.147000000
C     0.118000000    -1.080000000    -0.582000000
H     0.020000000    -2.062000000    -1.038000000
C    -0.994000000    -0.211000000    -0.744000000
C    -2.133000000    -0.827000000    -1.526000000
H    -2.617000000    -1.708000000    -1.100000000
H    -2.926000000    -0.076000000    -1.507000000
H    -1.792000000    -1.071000000    -2.534000000
C    -0.999000000     0.982000000     0.000000000
H    -1.869000000     1.633000000    -0.010000000
C     0.153000000     1.308000000     0.782000000
H     0.117000000     2.198000000     1.405000000
C     1.263000000     0.443000000     0.796000000
C     2.480000000     0.812000000     1.715000000
O     2.412000000     1.860000000     2.325000000
O     3.393000000    -0.001000000     1.775000000
