17
-94.02419
C    -1.426000000    -0.325000000    -0.304000000
H    -2.467000000    -0.403000000    -0.606000000
C    -0.374000000    -0.290000000    -1.205000000
H    -0.547000000    -0.361000000    -2.276000000
C     0.913000000     0.026000000    -0.821000000
C     1.977000000     0.169000000    -1.882000000
H     2.947000000     0.249000000    -1.387000000
H     2.047000000    -0.542000000    -2.707000000
H     1.944000000     1.168000000    -2.322000000
C     1.183000000     0.198000000     0.532000000
H     2.224000000     0.351000000     0.804000000
C     0.129000000     0.092000000     1.452000000
H     0.357000000     0.091000000     2.515000000
C    -1.188000000    -0.185000000     1.100000000
C    -2.256000000    -0.139000000     2.084000000
O    -2.033000000     0.118000000     3.268000000
O    -3.435000000    -0.224000000     1.763000000
