17
-90.62575
C    -0.327000000    -1.261000000     0.703000000
H    -0.513000000    -2.236000000     1.146000000
C    -0.396000000    -1.039000000    -0.707000000
H    -0.616000000    -1.895000000    -1.339000000
C    -0.034000000     0.194000000    -1.245000000
C    -0.253000000     0.431000000    -2.754000000
H     0.242000000     1.391000000    -2.910000000
H     0.167000000    -0.376000000    -3.358000000
H    -1.294000000     0.579000000    -3.048000000
C     0.357000000     1.206000000    -0.350000000
H     0.582000000     2.199000000    -0.730000000
C     0.437000000     0.947000000     1.058000000
H     0.786000000     1.761000000     1.688000000
C     0.123000000    -0.244000000     1.540000000
C     0.273000000    -0.500000000     3.038000000
O    -0.007000000     0.421000000     3.796000000
O     0.467000000    -1.575000000     3.480000000
