17
-88.75482
C    -0.707000000    -1.228000000     0.444000000
H    -1.256000000    -2.127000000     0.713000000
C    -0.889000000    -0.546000000    -0.810000000
H    -1.642000000    -0.927000000    -1.495000000
C    -0.195000000     0.608000000    -1.093000000
C    -0.176000000     1.017000000    -2.495000000
H     0.494000000     0.364000000    -3.058000000
H    -1.189000000     0.977000000    -2.900000000
H     0.165000000     2.054000000    -2.518000000
C     0.779000000     1.121000000    -0.181000000
H     1.379000000     2.018000000    -0.311000000
C     0.911000000     0.463000000     1.040000000
H     1.676000000     0.819000000     1.725000000
C     0.081000000    -0.653000000     1.374000000
C     0.156000000    -1.157000000     2.810000000
O     0.861000000    -0.647000000     3.623000000
O    -0.446000000    -2.148000000     3.133000000
