17
-87.06174
C    -0.152000000    -1.189000000     0.734000000
H    -0.143000000    -2.208000000     1.112000000
C    -0.357000000    -1.012000000    -0.582000000
H    -0.461000000    -1.873000000    -1.236000000
C    -0.206000000     0.222000000    -1.183000000
C    -0.373000000     0.200000000    -2.632000000
H    -0.177000000     1.147000000    -3.140000000
H     0.324000000    -0.541000000    -3.030000000
H    -1.337000000    -0.217000000    -2.931000000
C     0.117000000     1.337000000    -0.405000000
H     0.161000000     2.318000000    -0.871000000
C     0.164000000     1.191000000     1.001000000
H     0.401000000     2.005000000     1.682000000
C     0.026000000    -0.096000000     1.556000000
C     0.517000000    -0.334000000     2.950000000
O     0.837000000     0.538000000     3.657000000
O     0.651000000    -1.496000000     3.323000000
