17
-96.86003
C     1.113000000    -0.349000000     0.927000000
H     1.985000000    -0.734000000     1.449000000
C     1.125000000    -0.414000000    -0.501000000
H     2.023000000    -0.792000000    -0.983000000
C     0.031000000    -0.122000000    -1.255000000
C     0.011000000    -0.473000000    -2.710000000
H    -1.007000000    -0.602000000    -3.082000000
H     0.479000000     0.354000000    -3.249000000
H     0.460000000    -1.464000000    -2.808000000
C    -1.064000000     0.477000000    -0.603000000
H    -1.987000000     0.716000000    -1.126000000
C    -1.106000000     0.636000000     0.772000000
H    -2.020000000     0.991000000     1.242000000
C    -0.028000000     0.239000000     1.551000000
C    -0.040000000     0.408000000     3.074000000
O    -0.874000000     1.154000000     3.629000000
O     0.900000000    -0.020000000     3.670000000
