17
-90.25055
C    -0.473000000    -1.502000000     0.075000000
H    -0.977000000    -2.464000000     0.025000000
C    -0.223000000    -0.742000000    -1.088000000
H    -0.481000000    -1.113000000    -2.076000000
C     0.339000000     0.554000000    -1.079000000
C     0.641000000     1.340000000    -2.283000000
H     0.471000000     0.699000000    -3.151000000
H    -0.147000000     2.090000000    -2.373000000
H     1.647000000     1.739000000    -2.134000000
C     0.556000000     1.199000000     0.135000000
H     0.868000000     2.237000000     0.221000000
C     0.105000000     0.506000000     1.272000000
H     0.129000000     1.070000000     2.201000000
C    -0.308000000    -0.799000000     1.296000000
C    -0.600000000    -1.447000000     2.632000000
O    -0.528000000    -0.811000000     3.662000000
O    -1.020000000    -2.558000000     2.657000000
