17
-93.85790
C     0.964000000    -0.364000000     1.076000000
H     1.729000000    -0.753000000     1.743000000
C     1.240000000    -0.572000000    -0.312000000
H     2.081000000    -1.166000000    -0.661000000
C     0.287000000    -0.132000000    -1.262000000
C     0.230000000    -0.707000000    -2.622000000
H     1.219000000    -1.029000000    -2.954000000
H    -0.425000000    -1.579000000    -2.559000000
H    -0.084000000     0.018000000    -3.375000000
C    -0.827000000     0.578000000    -0.790000000
H    -1.606000000     0.872000000    -1.489000000
C    -1.062000000     0.817000000     0.584000000
H    -2.017000000     1.271000000     0.834000000
C    -0.194000000     0.318000000     1.538000000
C    -0.451000000     0.645000000     3.013000000
O    -1.486000000     1.213000000     3.319000000
O     0.408000000     0.572000000     3.910000000
