17
-88.81606
C     0.896000000    -0.538000000     1.120000000
H     1.579000000    -0.915000000     1.877000000
C     1.099000000    -0.629000000    -0.251000000
H     2.030000000    -1.033000000    -0.640000000
C     0.141000000    -0.129000000    -1.223000000
C     0.433000000    -0.281000000    -2.705000000
H     1.504000000    -0.284000000    -2.914000000
H    -0.098000000    -1.150000000    -3.099000000
H     0.096000000     0.581000000    -3.285000000
C    -1.070000000     0.365000000    -0.764000000
H    -1.803000000     0.826000000    -1.422000000
C    -1.118000000     0.594000000     0.607000000
H    -1.982000000     1.115000000     1.012000000
C    -0.227000000     0.107000000     1.548000000
C    -0.445000000     0.352000000     2.996000000
O    -1.482000000     0.789000000     3.297000000
O     0.449000000     0.231000000     3.852000000
