17
-96.59766
C     1.084000000    -0.305000000     0.908000000
H     2.031000000    -0.499000000     1.405000000
C     1.172000000    -0.184000000    -0.473000000
H     2.136000000    -0.249000000    -0.970000000
C     0.059000000     0.140000000    -1.232000000
C     0.199000000     0.204000000    -2.794000000
H     1.040000000     0.772000000    -3.199000000
H     0.422000000    -0.785000000    -3.201000000
H    -0.758000000     0.486000000    -3.238000000
C    -1.142000000     0.363000000    -0.527000000
H    -1.950000000     0.724000000    -1.158000000
C    -1.209000000     0.247000000     0.833000000
H    -2.155000000     0.288000000     1.366000000
C    -0.079000000    -0.041000000     1.620000000
C    -0.228000000    -0.335000000     3.171000000
O    -1.374000000    -0.367000000     3.630000000
O     0.754000000    -0.456000000     3.851000000
