17
-96.46680
C     1.132000000    -0.766000000     0.684000000
H     1.866000000    -1.458000000     1.090000000
C     0.956000000    -0.600000000    -0.671000000
H     1.587000000    -1.140000000    -1.373000000
C    -0.081000000     0.248000000    -1.199000000
C    -0.270000000     0.360000000    -2.668000000
H    -1.152000000     0.925000000    -2.977000000
H     0.615000000     0.818000000    -3.116000000
H    -0.357000000    -0.616000000    -3.150000000
C    -0.973000000     0.902000000    -0.352000000
H    -1.702000000     1.602000000    -0.752000000
C    -0.916000000     0.558000000     1.020000000
H    -1.648000000     1.021000000     1.677000000
C     0.113000000    -0.243000000     1.538000000
C     0.152000000    -0.502000000     3.007000000
O    -0.149000000     0.379000000     3.781000000
O     0.820000000    -1.481000000     3.465000000
