17
-91.07015
C     0.444000000    -0.888000000     1.117000000
H     0.963000000    -1.448000000     1.891000000
C     0.978000000    -0.879000000    -0.168000000
H     1.835000000    -1.500000000    -0.417000000
C     0.415000000    -0.088000000    -1.172000000
C     0.949000000     0.007000000    -2.667000000
H     1.819000000     0.666000000    -2.721000000
H     1.186000000    -0.931000000    -3.173000000
H     0.213000000     0.500000000    -3.305000000
C    -0.644000000     0.710000000    -0.741000000
H    -1.011000000     1.393000000    -1.503000000
C    -1.165000000     0.804000000     0.540000000
H    -1.869000000     1.578000000     0.834000000
C    -0.608000000    -0.059000000     1.521000000
C    -1.121000000    -0.007000000     2.904000000
O    -1.804000000     0.900000000     3.348000000
O    -0.574000000    -0.762000000     3.710000000
