17
-90.75101
C    -0.653000000    -1.093000000     0.696000000
H    -1.011000000    -1.967000000     1.234000000
C     0.705000000    -0.828000000     0.622000000
H     1.420000000    -1.436000000     1.171000000
C     1.208000000     0.318000000    -0.037000000
C     2.749000000     0.484000000    -0.133000000
H     3.007000000     0.814000000    -1.142000000
H     3.195000000     1.154000000     0.605000000
H     3.243000000    -0.474000000     0.045000000
C     0.314000000     1.177000000    -0.640000000
H     0.679000000     2.038000000    -1.193000000
C    -1.042000000     0.832000000    -0.578000000
H    -1.751000000     1.511000000    -1.045000000
C    -1.590000000    -0.243000000     0.133000000
C    -3.059000000    -0.674000000     0.107000000
O    -3.866000000     0.120000000    -0.312000000
O    -3.545000000    -1.734000000     0.461000000
