17
-93.97396
C     1.330000000     0.042000000     0.563000000
H     2.368000000    -0.103000000     0.853000000
C     0.726000000    -1.032000000    -0.091000000
H     1.314000000    -1.924000000    -0.292000000
C    -0.595000000    -0.996000000    -0.394000000
C    -1.207000000    -2.250000000    -0.945000000
H    -2.251000000    -2.012000000    -1.159000000
H    -0.711000000    -2.492000000    -1.887000000
H    -1.228000000    -3.034000000    -0.186000000
C    -1.213000000     0.229000000    -0.499000000
H    -2.208000000     0.331000000    -0.924000000
C    -0.592000000     1.339000000     0.066000000
H    -1.141000000     2.277000000     0.077000000
C     0.687000000     1.280000000     0.659000000
C     1.403000000     2.436000000     1.306000000
O     0.707000000     3.429000000     1.500000000
O     2.611000000     2.478000000     1.357000000
