17
-87.49716
C    -0.088000000    -1.489000000    -0.381000000
H    -0.010000000    -2.535000000    -0.664000000
C     1.097000000    -0.806000000    -0.126000000
H     2.015000000    -1.382000000    -0.208000000
C     1.057000000     0.574000000     0.257000000
C     2.357000000     1.369000000     0.506000000
H     2.756000000     1.769000000    -0.429000000
H     2.088000000     2.268000000     1.064000000
H     3.078000000     0.722000000     1.009000000
C    -0.154000000     1.201000000     0.283000000
H    -0.253000000     2.252000000     0.542000000
C    -1.301000000     0.577000000     0.025000000
H    -2.236000000     1.114000000     0.159000000
C    -1.345000000    -0.766000000    -0.334000000
C    -2.661000000    -1.446000000    -0.449000000
O    -3.719000000    -0.883000000    -0.310000000
O    -2.683000000    -2.546000000    -0.947000000
