17
-96.32857
C     1.305000000     0.259000000     0.691000000
H     2.124000000     0.376000000     1.395000000
C     0.853000000    -1.011000000     0.268000000
H     1.480000000    -1.892000000     0.375000000
C    -0.391000000    -1.126000000    -0.394000000
C    -0.966000000    -2.480000000    -0.750000000
H    -1.161000000    -3.022000000     0.178000000
H    -1.928000000    -2.353000000    -1.252000000
H    -0.373000000    -3.066000000    -1.457000000
C    -1.118000000     0.067000000    -0.714000000
H    -2.015000000    -0.034000000    -1.320000000
C    -0.647000000     1.340000000    -0.304000000
H    -1.209000000     2.258000000    -0.451000000
C     0.558000000     1.431000000     0.432000000
C     0.974000000     2.718000000     1.017000000
O     0.630000000     3.718000000     0.420000000
O     1.885000000     2.821000000     1.871000000
