17
-100.30087
C     1.139000000    -0.848000000     0.473000000
H     1.985000000    -1.464000000     0.768000000
C     0.415000000    -1.031000000    -0.725000000
H     0.853000000    -1.737000000    -1.426000000
C    -0.650000000    -0.217000000    -0.989000000
C    -1.296000000    -0.297000000    -2.370000000
H    -1.328000000     0.689000000    -2.840000000
H    -0.767000000    -0.987000000    -3.031000000
H    -2.325000000    -0.636000000    -2.235000000
C    -1.073000000     0.837000000    -0.159000000
H    -2.002000000     1.372000000    -0.340000000
C    -0.360000000     0.971000000     1.072000000
H    -0.670000000     1.787000000     1.720000000
C     0.744000000     0.182000000     1.353000000
C     1.568000000     0.396000000     2.581000000
O     1.306000000     1.364000000     3.284000000
O     2.463000000    -0.379000000     2.869000000
