17
-83.08704
C     0.817000000     1.154000000     0.103000000
H     1.490000000     2.007000000     0.148000000
C     1.299000000    -0.053000000    -0.368000000
H     2.307000000    -0.201000000    -0.747000000
C     0.350000000    -1.077000000    -0.474000000
C     0.875000000    -2.445000000    -0.874000000
H     1.582000000    -2.262000000    -1.685000000
H     1.343000000    -2.965000000    -0.035000000
H     0.113000000    -3.032000000    -1.392000000
C    -1.015000000    -0.909000000    -0.035000000
H    -1.837000000    -1.619000000    -0.078000000
C    -1.423000000     0.366000000     0.379000000
H    -2.427000000     0.556000000     0.751000000
C    -0.458000000     1.378000000     0.510000000
C    -0.897000000     2.654000000     1.099000000
O    -1.810000000     2.764000000     1.842000000
O    -0.314000000     3.676000000     0.863000000
