17
-92.86528
C     0.233000000     1.376000000     0.307000000
H     0.626000000     2.359000000     0.558000000
C     1.177000000     0.376000000     0.386000000
H     2.231000000     0.538000000     0.599000000
C     0.778000000    -0.900000000     0.038000000
C     1.855000000    -1.982000000     0.010000000
H     2.784000000    -1.573000000    -0.392000000
H     2.235000000    -2.504000000     0.891000000
H     1.578000000    -2.713000000    -0.753000000
C    -0.564000000    -1.229000000    -0.252000000
H    -0.863000000    -2.272000000    -0.319000000
C    -1.526000000    -0.191000000    -0.321000000
H    -2.568000000    -0.442000000    -0.504000000
C    -1.119000000     1.146000000    -0.073000000
C    -2.008000000     2.387000000    -0.105000000
O    -3.188000000     2.124000000    -0.253000000
O    -1.660000000     3.506000000     0.178000000
