17
-92.20584
C    -0.259000000     1.363000000     0.304000000
H    -0.241000000     2.422000000     0.546000000
C     0.965000000     0.729000000     0.515000000
H     1.793000000     1.282000000     0.952000000
C     1.052000000    -0.607000000     0.089000000
C     2.428000000    -1.203000000     0.229000000
H     2.553000000    -1.347000000     1.305000000
H     2.662000000    -2.090000000    -0.363000000
H     3.143000000    -0.445000000    -0.098000000
C    -0.079000000    -1.291000000    -0.385000000
H     0.040000000    -2.338000000    -0.650000000
C    -1.306000000    -0.664000000    -0.510000000
H    -2.210000000    -1.184000000    -0.816000000
C    -1.421000000     0.666000000    -0.065000000
C    -2.679000000     1.378000000    -0.321000000
O    -3.694000000     0.741000000    -0.361000000
O    -2.753000000     2.590000000    -0.365000000
