17
-96.77739
C     0.744000000     1.150000000     0.652000000
H     1.346000000     1.927000000     1.117000000
C     1.351000000    -0.066000000     0.270000000
H     2.336000000    -0.290000000     0.672000000
C     0.536000000    -1.039000000    -0.385000000
C     1.114000000    -2.466000000    -0.602000000
H     1.210000000    -3.048000000     0.317000000
H     0.395000000    -3.051000000    -1.180000000
H     2.027000000    -2.417000000    -1.199000000
C    -0.841000000    -0.837000000    -0.583000000
H    -1.502000000    -1.626000000    -0.929000000
C    -1.408000000     0.390000000    -0.199000000
H    -2.472000000     0.544000000    -0.360000000
C    -0.614000000     1.397000000     0.405000000
C    -1.227000000     2.786000000     0.587000000
O    -2.300000000     3.046000000     0.095000000
O    -0.688000000     3.598000000     1.318000000
