17
-90.33728
C     1.014000000     0.987000000     0.536000000
H     1.889000000     1.615000000     0.678000000
C     1.262000000    -0.354000000     0.209000000
H     2.279000000    -0.737000000     0.224000000
C     0.299000000    -1.188000000    -0.230000000
C     0.570000000    -2.569000000    -0.774000000
H    -0.185000000    -2.817000000    -1.524000000
H     1.558000000    -2.693000000    -1.221000000
H     0.411000000    -3.349000000    -0.026000000
C    -0.975000000    -0.665000000    -0.284000000
H    -1.721000000    -1.275000000    -0.786000000
C    -1.325000000     0.606000000     0.118000000
H    -2.334000000     0.955000000    -0.085000000
C    -0.328000000     1.503000000     0.511000000
C    -0.695000000     2.928000000     0.834000000
O    -1.856000000     3.290000000     0.830000000
O     0.144000000     3.762000000     0.989000000
