17
-99.66903
C     1.081000000     1.020000000    -0.024000000
H     1.921000000     1.710000000    -0.002000000
C     1.244000000    -0.357000000     0.084000000
H     2.255000000    -0.731000000     0.221000000
C     0.204000000    -1.223000000    -0.009000000
C     0.294000000    -2.740000000     0.175000000
H     0.346000000    -2.989000000     1.237000000
H    -0.595000000    -3.254000000    -0.197000000
H     1.220000000    -3.125000000    -0.257000000
C    -1.078000000    -0.688000000    -0.114000000
H    -1.970000000    -1.300000000    -0.215000000
C    -1.260000000     0.703000000    -0.134000000
H    -2.276000000     1.090000000    -0.157000000
C    -0.213000000     1.550000000    -0.101000000
C    -0.353000000     3.034000000    -0.175000000
O    -1.405000000     3.572000000    -0.531000000
O     0.586000000     3.734000000     0.194000000
