17
-91.25119
C     1.273000000     0.457000000     0.599000000
H     2.252000000     0.690000000     1.010000000
C     0.921000000    -0.838000000     0.320000000
H     1.683000000    -1.565000000     0.589000000
C    -0.393000000    -1.157000000    -0.127000000
C    -0.761000000    -2.620000000    -0.233000000
H    -0.270000000    -3.069000000    -1.098000000
H    -0.554000000    -3.228000000     0.651000000
H    -1.833000000    -2.713000000    -0.418000000
C    -1.212000000    -0.157000000    -0.693000000
H    -2.033000000    -0.398000000    -1.364000000
C    -0.802000000     1.199000000    -0.466000000
H    -1.477000000     1.967000000    -0.834000000
C     0.406000000     1.479000000     0.223000000
C     0.858000000     2.908000000     0.477000000
O     0.049000000     3.888000000     0.359000000
O     1.893000000     3.154000000     1.012000000
