17
-98.55009
C     1.316000000     0.063000000     0.775000000
H     2.353000000     0.058000000     1.102000000
C     0.765000000    -1.044000000     0.175000000
H     1.392000000    -1.920000000     0.032000000
C    -0.491000000    -1.086000000    -0.448000000
C    -0.999000000    -2.251000000    -1.193000000
H    -0.948000000    -2.097000000    -2.273000000
H    -0.420000000    -3.144000000    -0.947000000
H    -2.037000000    -2.494000000    -0.957000000
C    -1.235000000     0.125000000    -0.440000000
H    -2.154000000     0.184000000    -1.018000000
C    -0.695000000     1.323000000     0.123000000
H    -1.285000000     2.231000000     0.029000000
C     0.567000000     1.289000000     0.711000000
C     1.154000000     2.563000000     1.254000000
O     0.402000000     3.527000000     1.434000000
O     2.322000000     2.678000000     1.649000000
