17
-93.71900
C    -0.226000000    -1.201000000    -0.836000000
H    -0.446000000    -1.998000000    -1.541000000
C    -0.411000000     0.093000000    -1.230000000
H    -0.728000000     0.323000000    -2.244000000
C    -0.284000000     1.140000000    -0.347000000
C    -0.435000000     2.552000000    -0.813000000
H    -1.330000000     3.062000000    -0.451000000
H     0.433000000     3.168000000    -0.566000000
H    -0.253000000     2.527000000    -1.889000000
C     0.195000000     0.876000000     0.985000000
H     0.249000000     1.692000000     1.701000000
C     0.379000000    -0.407000000     1.389000000
H     0.677000000    -0.552000000     2.424000000
C     0.193000000    -1.472000000     0.455000000
C     0.619000000    -2.895000000     0.848000000
O     1.114000000    -3.070000000     1.936000000
O     0.252000000    -3.835000000     0.179000000
