17
-97.48180
C    -0.378000000     0.289000000    -1.423000000
H    -0.552000000     0.389000000    -2.491000000
C    -0.551000000    -0.931000000    -0.859000000
H    -0.992000000    -1.792000000    -1.357000000
C    -0.205000000    -1.056000000     0.539000000
C    -0.529000000    -2.338000000     1.265000000
H    -1.476000000    -2.240000000     1.800000000
H    -0.389000000    -3.237000000     0.662000000
H     0.197000000    -2.417000000     2.077000000
C     0.416000000    -0.055000000     1.213000000
H     0.684000000    -0.254000000     2.248000000
C     0.564000000     1.175000000     0.630000000
H     1.090000000     1.981000000     1.135000000
C     0.202000000     1.388000000    -0.701000000
C     0.536000000     2.720000000    -1.362000000
O     1.333000000     3.479000000    -0.877000000
O     0.049000000     2.899000000    -2.494000000
