17
-88.18696
C     1.130000000    -0.378000000    -0.892000000
H     1.933000000    -0.822000000    -1.475000000
C     0.296000000    -1.271000000    -0.208000000
H     0.331000000    -2.354000000    -0.290000000
C    -0.665000000    -0.816000000     0.684000000
C    -1.691000000    -1.779000000     1.257000000
H    -1.719000000    -2.696000000     0.663000000
H    -1.434000000    -2.074000000     2.277000000
H    -2.702000000    -1.368000000     1.234000000
C    -0.829000000     0.571000000     0.857000000
H    -1.579000000     0.913000000     1.565000000
C    -0.061000000     1.559000000     0.070000000
H    -0.323000000     2.610000000     0.162000000
C     0.961000000     1.056000000    -0.777000000
C     1.890000000     2.021000000    -1.443000000
O     1.824000000     3.202000000    -1.323000000
O     2.642000000     1.618000000    -2.354000000
