17
-84.13955
C     1.243000000     0.859000000    -0.253000000
H     2.121000000     1.431000000    -0.541000000
C     0.654000000    -0.029000000    -1.120000000
H     1.020000000    -0.184000000    -2.132000000
C    -0.495000000    -0.699000000    -0.814000000
C    -1.078000000    -1.751000000    -1.679000000
H    -2.166000000    -1.773000000    -1.776000000
H    -0.735000000    -1.677000000    -2.713000000
H    -0.726000000    -2.712000000    -1.299000000
C    -1.063000000    -0.579000000     0.399000000
H    -1.902000000    -1.234000000     0.619000000
C    -0.484000000     0.312000000     1.322000000
H    -0.985000000     0.405000000     2.283000000
C     0.713000000     0.916000000     1.026000000
C     1.191000000     1.966000000     1.990000000
O     0.392000000     2.420000000     2.746000000
O     2.300000000     2.321000000     1.939000000
