17
-88.44487
C    -0.420000000    -1.331000000    -0.249000000
H    -0.640000000    -2.364000000    -0.505000000
C     0.885000000    -0.819000000    -0.147000000
H     1.737000000    -1.474000000    -0.311000000
C     1.174000000     0.445000000     0.082000000
C     2.653000000     0.864000000     0.275000000
H     2.970000000     0.668000000     1.301000000
H     3.306000000     0.310000000    -0.403000000
H     2.634000000     1.916000000    -0.018000000
C     0.075000000     1.309000000     0.229000000
H     0.254000000     2.356000000     0.463000000
C    -1.274000000     0.818000000     0.085000000
H    -2.011000000     1.616000000     0.038000000
C    -1.511000000    -0.549000000    -0.149000000
C    -2.901000000    -1.116000000    -0.221000000
O    -3.811000000    -0.402000000     0.126000000
O    -3.119000000    -2.248000000    -0.604000000
