17
-92.08454
C    -0.987000000     0.374000000    -1.099000000
H    -1.589000000     0.513000000    -1.993000000
C    -0.850000000    -0.886000000    -0.537000000
H    -1.534000000    -1.660000000    -0.876000000
C     0.123000000    -1.120000000     0.454000000
C     0.314000000    -2.455000000     1.035000000
H     0.122000000    -3.209000000     0.269000000
H     1.366000000    -2.674000000     1.228000000
H    -0.283000000    -2.695000000     1.917000000
C     0.940000000    -0.112000000     0.947000000
H     1.650000000    -0.285000000     1.752000000
C     0.805000000     1.162000000     0.348000000
H     1.481000000     1.944000000     0.683000000
C    -0.172000000     1.407000000    -0.575000000
C    -0.406000000     2.857000000    -1.034000000
O     0.214000000     3.769000000    -0.600000000
O    -1.187000000     3.077000000    -1.921000000
