17
-95.82206
C    -0.197000000    -1.496000000     0.138000000
H    -0.201000000    -2.566000000     0.329000000
C     0.962000000    -0.767000000     0.452000000
H     1.759000000    -1.396000000     0.839000000
C     1.063000000     0.607000000     0.272000000
C     2.286000000     1.343000000     0.646000000
H     2.831000000     0.657000000     1.298000000
H     2.950000000     1.477000000    -0.210000000
H     2.164000000     2.299000000     1.159000000
C    -0.011000000     1.269000000    -0.355000000
H     0.094000000     2.334000000    -0.543000000
C    -1.213000000     0.612000000    -0.640000000
H    -2.057000000     1.211000000    -0.974000000
C    -1.297000000    -0.768000000    -0.349000000
C    -2.638000000    -1.435000000    -0.627000000
O    -3.560000000    -0.816000000    -1.168000000
O    -2.936000000    -2.565000000    -0.263000000
