17
-92.04857
C    -1.400000000    -0.419000000     0.156000000
H    -2.378000000    -0.888000000     0.223000000
C    -0.511000000    -0.882000000    -0.815000000
H    -0.796000000    -1.628000000    -1.552000000
C     0.784000000    -0.366000000    -0.856000000
C     1.738000000    -0.895000000    -1.953000000
H     2.721000000    -0.433000000    -1.844000000
H     1.771000000    -1.974000000    -1.792000000
H     1.344000000    -0.663000000    -2.945000000
C     1.200000000     0.556000000     0.113000000
H     2.204000000     0.973000000     0.130000000
C     0.348000000     1.003000000     1.091000000
H     0.738000000     1.589000000     1.919000000
C    -1.011000000     0.645000000     1.033000000
C    -2.001000000     1.033000000     2.066000000
O    -1.623000000     1.647000000     3.030000000
O    -3.135000000     0.696000000     1.990000000
