17
-98.50354
C    -1.387000000     0.484000000    -0.053000000
H    -2.381000000     0.849000000    -0.302000000
C    -0.488000000     0.540000000    -1.123000000
H    -0.835000000     0.833000000    -2.110000000
C     0.797000000     0.049000000    -0.983000000
C     1.751000000    -0.183000000    -2.117000000
H     2.356000000     0.712000000    -2.271000000
H     2.460000000    -0.997000000    -1.950000000
H     1.172000000    -0.487000000    -2.992000000
C     1.165000000    -0.431000000     0.296000000
H     2.134000000    -0.869000000     0.522000000
C     0.309000000    -0.355000000     1.403000000
H     0.634000000    -0.654000000     2.396000000
C    -1.036000000     0.052000000     1.194000000
C    -1.990000000     0.189000000     2.366000000
O    -1.480000000     0.278000000     3.480000000
O    -3.181000000    -0.006000000     2.249000000
