17
-96.88499
C    -0.445000000    -1.313000000     0.467000000
H    -0.627000000    -2.223000000     1.032000000
C     0.792000000    -0.732000000     0.700000000
H     1.512000000    -1.326000000     1.256000000
C     1.114000000     0.555000000     0.164000000
C     2.527000000     1.079000000     0.354000000
H     3.008000000     0.588000000     1.202000000
H     3.144000000     0.938000000    -0.536000000
H     2.535000000     2.155000000     0.541000000
C     0.193000000     1.185000000    -0.683000000
H     0.427000000     2.178000000    -1.057000000
C    -1.089000000     0.596000000    -0.771000000
H    -1.889000000     1.006000000    -1.382000000
C    -1.419000000    -0.696000000    -0.246000000
C    -2.879000000    -1.179000000    -0.352000000
O    -3.777000000    -0.453000000    -0.694000000
O    -3.132000000    -2.351000000     0.002000000
