17
-95.21290
C    -1.515000000     0.361000000     0.030000000
H    -2.542000000     0.691000000    -0.099000000
C    -0.674000000     0.135000000    -1.154000000
H    -1.039000000     0.124000000    -2.178000000
C     0.659000000    -0.413000000    -1.008000000
C     1.533000000    -0.602000000    -2.187000000
H     1.197000000    -1.451000000    -2.787000000
H     1.447000000     0.306000000    -2.788000000
H     2.604000000    -0.644000000    -1.978000000
C     1.229000000    -0.519000000     0.280000000
H     2.231000000    -0.932000000     0.361000000
C     0.442000000    -0.094000000     1.377000000
H     0.829000000    -0.169000000     2.390000000
C    -0.847000000     0.418000000     1.258000000
C    -1.689000000     0.793000000     2.507000000
O    -1.031000000     0.841000000     3.565000000
O    -2.840000000     1.158000000     2.406000000
