17
-95.42358
C    -1.457000000     0.155000000     0.044000000
H    -2.540000000     0.181000000    -0.053000000
C    -0.626000000     0.264000000    -1.038000000
H    -1.000000000     0.435000000    -2.044000000
C     0.722000000     0.092000000    -0.991000000
C     1.545000000     0.313000000    -2.212000000
H     2.614000000     0.186000000    -2.032000000
H     1.194000000    -0.176000000    -3.123000000
H     1.470000000     1.398000000    -2.318000000
C     1.287000000    -0.232000000     0.222000000
H     2.333000000    -0.517000000     0.298000000
C     0.504000000    -0.265000000     1.348000000
H     0.918000000    -0.403000000     2.344000000
C    -0.875000000    -0.062000000     1.287000000
C    -1.811000000    -0.338000000     2.456000000
O    -1.279000000    -0.763000000     3.483000000
O    -2.997000000    -0.270000000     2.327000000
