17
-98.45814
C    -1.297000000    -0.572000000     0.567000000
H    -2.242000000    -1.095000000     0.689000000
C    -1.019000000    -0.214000000    -0.777000000
H    -1.780000000    -0.359000000    -1.540000000
C     0.224000000     0.330000000    -1.185000000
C     0.676000000     0.472000000    -2.665000000
H     0.511000000     1.462000000    -3.096000000
H     1.687000000     0.086000000    -2.809000000
H     0.069000000    -0.151000000    -3.325000000
C     1.126000000     0.619000000    -0.142000000
H     2.012000000     1.175000000    -0.436000000
C     0.839000000     0.388000000     1.213000000
H     1.548000000     0.753000000     1.952000000
C    -0.373000000    -0.245000000     1.561000000
C    -0.610000000    -0.738000000     2.955000000
O     0.367000000    -0.831000000     3.741000000
O    -1.735000000    -1.072000000     3.293000000
