17
-87.49203
C    -0.059000000    -1.339000000     0.589000000
H     0.023000000    -2.382000000     0.883000000
C     1.070000000    -0.457000000     0.738000000
H     1.853000000    -0.728000000     1.441000000
C     0.953000000     0.747000000     0.096000000
C     2.041000000     1.734000000     0.332000000
H     3.049000000     1.339000000     0.472000000
H     2.148000000     2.245000000    -0.627000000
H     1.803000000     2.518000000     1.054000000
C    -0.162000000     1.087000000    -0.630000000
H    -0.119000000     1.998000000    -1.222000000
C    -1.241000000     0.237000000    -0.827000000
H    -2.058000000     0.539000000    -1.477000000
C    -1.220000000    -1.015000000    -0.140000000
C    -2.334000000    -1.970000000    -0.239000000
O    -3.313000000    -1.631000000    -0.897000000
O    -2.440000000    -2.925000000     0.461000000
