17
-93.00796
C    -0.655000000    -1.110000000     0.704000000
H    -1.304000000    -1.863000000     1.142000000
C    -0.531000000    -0.883000000    -0.706000000
H    -1.017000000    -1.573000000    -1.390000000
C     0.179000000     0.182000000    -1.212000000
C     0.106000000     0.298000000    -2.714000000
H    -0.875000000     0.049000000    -3.125000000
H     0.177000000     1.371000000    -2.901000000
H     0.693000000    -0.428000000    -3.281000000
C     0.814000000     1.033000000    -0.384000000
H     1.254000000     1.931000000    -0.811000000
C     0.706000000     0.831000000     0.997000000
H     1.199000000     1.494000000     1.704000000
C     0.050000000    -0.271000000     1.574000000
C    -0.198000000    -0.332000000     3.083000000
O     0.280000000     0.520000000     3.768000000
O    -0.878000000    -1.246000000     3.545000000
