17
-101.25635
C    -0.129000000    -1.185000000     0.899000000
H    -0.285000000    -2.042000000     1.548000000
C    -0.448000000    -1.208000000    -0.492000000
H    -0.824000000    -2.114000000    -0.960000000
C    -0.275000000    -0.058000000    -1.235000000
C    -0.502000000     0.076000000    -2.716000000
H    -1.102000000    -0.759000000    -3.084000000
H    -1.151000000     0.949000000    -2.809000000
H     0.442000000     0.100000000    -3.266000000
C     0.177000000     1.094000000    -0.560000000
H     0.339000000     1.954000000    -1.206000000
C     0.514000000     1.122000000     0.790000000
H     0.928000000     1.983000000     1.309000000
C     0.346000000    -0.054000000     1.505000000
C     0.575000000     0.021000000     3.025000000
O     0.489000000     1.137000000     3.653000000
O     0.913000000    -1.016000000     3.601000000
