17
-88.46458
C    -0.968000000    -0.989000000     0.626000000
H    -1.466000000    -1.912000000     0.912000000
C    -0.794000000    -0.782000000    -0.707000000
H    -1.297000000    -1.477000000    -1.375000000
C     0.004000000     0.274000000    -1.236000000
C     0.318000000     0.404000000    -2.694000000
H    -0.372000000     0.969000000    -3.325000000
H     1.287000000     0.895000000    -2.808000000
H     0.514000000    -0.575000000    -3.134000000
C     0.755000000     0.993000000    -0.293000000
H     1.542000000     1.699000000    -0.543000000
C     0.502000000     0.856000000     1.077000000
H     1.109000000     1.498000000     1.711000000
C    -0.321000000    -0.170000000     1.578000000
C    -0.233000000    -0.499000000     3.048000000
O     0.347000000     0.220000000     3.797000000
O    -0.922000000    -1.401000000     3.363000000
