17
-101.05674
C    -0.963000000    -1.055000000     0.484000000
H    -1.618000000    -1.900000000     0.678000000
C    -0.216000000    -1.013000000    -0.708000000
H    -0.216000000    -1.883000000    -1.360000000
C     0.596000000     0.050000000    -1.084000000
C     1.354000000     0.130000000    -2.403000000
H     0.924000000    -0.574000000    -3.118000000
H     1.313000000     1.148000000    -2.797000000
H     2.395000000    -0.198000000    -2.353000000
C     0.744000000     1.073000000    -0.165000000
H     1.346000000     1.935000000    -0.440000000
C     0.041000000     1.027000000     1.035000000
H     0.047000000     1.860000000     1.734000000
C    -0.827000000    -0.058000000     1.357000000
C    -1.475000000    -0.174000000     2.708000000
O    -1.332000000     0.815000000     3.469000000
O    -2.107000000    -1.179000000     2.967000000
