17
-103.13877
C    -1.130000000    -0.894000000    -0.378000000
H    -1.983000000    -1.463000000    -0.738000000
C    -0.488000000     0.000000000    -1.237000000
H    -0.711000000     0.106000000    -2.296000000
C     0.622000000     0.736000000    -0.754000000
C     1.310000000     1.807000000    -1.620000000
H     0.622000000     2.617000000    -1.874000000
H     2.232000000     2.189000000    -1.177000000
H     1.462000000     1.365000000    -2.607000000
C     1.014000000     0.613000000     0.591000000
H     1.764000000     1.270000000     1.024000000
C     0.396000000    -0.344000000     1.414000000
H     0.774000000    -0.468000000     2.426000000
C    -0.705000000    -1.003000000     0.940000000
C    -1.495000000    -1.959000000     1.854000000
O    -1.106000000    -2.200000000     3.003000000
O    -2.577000000    -2.370000000     1.425000000
