17
-99.09736
C    -1.272000000    -0.856000000    -0.089000000
H    -2.202000000    -1.402000000    -0.229000000
C    -0.742000000    -0.078000000    -1.144000000
H    -1.332000000     0.087000000    -2.042000000
C     0.413000000     0.703000000    -0.944000000
C     0.990000000     1.729000000    -1.952000000
H     2.042000000     1.932000000    -1.744000000
H     1.005000000     1.258000000    -2.937000000
H     0.484000000     2.694000000    -1.879000000
C     1.094000000     0.612000000     0.283000000
H     2.019000000     1.156000000     0.455000000
C     0.575000000    -0.186000000     1.344000000
H     1.193000000    -0.222000000     2.237000000
C    -0.643000000    -0.877000000     1.177000000
C    -1.122000000    -1.864000000     2.242000000
O    -0.497000000    -2.034000000     3.319000000
O    -1.999000000    -2.648000000     1.908000000
