17
-92.69474
C    -1.377000000    -0.719000000    -0.008000000
H    -2.407000000    -1.067000000    -0.012000000
C    -0.819000000     0.052000000    -1.041000000
H    -1.346000000     0.263000000    -1.968000000
C     0.449000000     0.717000000    -0.939000000
C     1.092000000     1.452000000    -2.081000000
H     0.829000000     1.071000000    -3.069000000
H     0.883000000     2.524000000    -2.083000000
H     2.178000000     1.356000000    -2.146000000
C     1.144000000     0.510000000     0.274000000
H     2.121000000     0.967000000     0.411000000
C     0.701000000    -0.308000000     1.293000000
H     1.292000000    -0.582000000     2.163000000
C    -0.640000000    -0.882000000     1.187000000
C    -1.236000000    -1.584000000     2.370000000
O    -0.473000000    -2.015000000     3.217000000
O    -2.397000000    -1.763000000     2.430000000
