17
-90.72617
C    -1.211000000    -0.699000000     0.458000000
H    -2.130000000    -1.265000000     0.589000000
C    -0.637000000    -0.790000000    -0.816000000
H    -1.167000000    -1.455000000    -1.492000000
C     0.474000000    -0.006000000    -1.118000000
C     1.314000000    -0.313000000    -2.342000000
H     1.167000000    -1.310000000    -2.761000000
H     0.994000000     0.226000000    -3.236000000
H     2.380000000    -0.083000000    -2.276000000
C     0.886000000     0.919000000    -0.204000000
H     1.598000000     1.651000000    -0.575000000
C     0.386000000     0.959000000     1.106000000
H     0.855000000     1.685000000     1.765000000
C    -0.730000000     0.175000000     1.371000000
C    -1.250000000     0.157000000     2.790000000
O    -0.675000000     0.649000000     3.774000000
O    -2.255000000    -0.495000000     2.959000000
