17
-98.85145
C    -0.807000000    -1.102000000    -0.540000000
H    -1.279000000    -2.023000000    -0.871000000
C     0.540000000    -1.150000000    -0.404000000
H     1.054000000    -2.082000000    -0.623000000
C     1.196000000    -0.052000000     0.140000000
C     2.653000000    -0.062000000     0.540000000
H     3.040000000     0.944000000     0.713000000
H     2.691000000    -0.600000000     1.490000000
H     3.291000000    -0.645000000    -0.127000000
C     0.522000000     1.139000000     0.281000000
H     1.081000000     2.044000000     0.502000000
C    -0.828000000     1.191000000     0.068000000
H    -1.327000000     2.153000000     0.156000000
C    -1.525000000     0.077000000    -0.298000000
C    -3.052000000     0.064000000    -0.374000000
O    -3.635000000     1.077000000    -0.021000000
O    -3.619000000    -0.975000000    -0.634000000
