17
-91.55253
C    -0.257000000    -1.091000000    -0.968000000
H    -0.322000000    -1.899000000    -1.692000000
C     0.791000000    -0.153000000    -1.093000000
H     1.512000000    -0.244000000    -1.901000000
C     0.954000000     0.845000000    -0.106000000
C     2.042000000     1.794000000    -0.263000000
H     2.168000000     2.179000000     0.751000000
H     2.844000000     1.146000000    -0.622000000
H     1.766000000     2.563000000    -0.988000000
C    -0.014000000     0.968000000     0.938000000
H     0.063000000     1.757000000     1.682000000
C    -1.040000000     0.022000000     1.021000000
H    -1.774000000     0.139000000     1.814000000
C    -1.149000000    -1.033000000     0.127000000
C    -2.210000000    -2.073000000     0.433000000
O    -3.131000000    -1.896000000     1.186000000
O    -2.246000000    -3.030000000    -0.317000000
