17
-91.50717
C    -0.458000000    -1.404000000    -0.345000000
H    -0.687000000    -2.408000000    -0.693000000
C     0.482000000    -0.641000000    -1.051000000
H     1.055000000    -1.101000000    -1.852000000
C     0.681000000     0.745000000    -0.739000000
C     1.744000000     1.597000000    -1.373000000
H     1.650000000     1.497000000    -2.456000000
H     1.708000000     2.667000000    -1.155000000
H     2.763000000     1.275000000    -1.148000000
C     0.040000000     1.217000000     0.362000000
H     0.192000000     2.262000000     0.622000000
C    -0.827000000     0.441000000     1.098000000
H    -1.182000000     0.892000000     2.021000000
C    -1.044000000    -0.897000000     0.799000000
C    -1.806000000    -1.783000000     1.727000000
O    -2.509000000    -1.375000000     2.615000000
O    -1.804000000    -2.988000000     1.563000000
