17
-87.63135
C     0.143000000    -0.848000000    -1.158000000
H     0.387000000    -1.391000000    -2.068000000
C     1.191000000    -0.046000000    -0.587000000
H     2.211000000     0.092000000    -0.935000000
C     0.903000000     0.724000000     0.491000000
C     1.842000000     1.743000000     0.909000000
H     1.282000000     2.679000000     0.954000000
H     2.191000000     1.471000000     1.908000000
H     2.751000000     1.751000000     0.305000000
C    -0.370000000     0.628000000     1.076000000
H    -0.534000000     1.209000000     1.980000000
C    -1.340000000    -0.237000000     0.569000000
H    -2.267000000    -0.397000000     1.113000000
C    -1.070000000    -0.992000000    -0.553000000
C    -2.140000000    -1.954000000    -1.109000000
O    -3.260000000    -1.889000000    -0.727000000
O    -1.924000000    -2.536000000    -2.171000000
