17
-97.38857
C     0.342000000     0.878000000    -1.157000000
H     0.695000000     1.543000000    -1.942000000
C     0.627000000     1.177000000     0.193000000
H     1.272000000     2.029000000     0.390000000
C     0.143000000     0.332000000     1.181000000
C     0.284000000     0.538000000     2.692000000
H     1.282000000     0.977000000     2.740000000
H    -0.405000000     1.284000000     3.093000000
H     0.225000000    -0.358000000     3.314000000
C    -0.521000000    -0.789000000     0.807000000
H    -0.880000000    -1.443000000     1.598000000
C    -0.627000000    -1.156000000    -0.519000000
H    -1.018000000    -2.159000000    -0.668000000
C    -0.267000000    -0.293000000    -1.579000000
C    -0.377000000    -0.720000000    -3.019000000
O    -1.045000000    -1.722000000    -3.233000000
O     0.274000000    -0.125000000    -3.885000000
