17
-99.60629
C     0.153000000     0.988000000    -1.053000000
H     0.141000000     1.840000000    -1.728000000
C     0.218000000     1.240000000     0.308000000
H     0.311000000     2.291000000     0.572000000
C     0.084000000     0.189000000     1.251000000
C     0.068000000     0.538000000     2.693000000
H    -0.408000000    -0.201000000     3.340000000
H     1.123000000     0.663000000     2.947000000
H    -0.271000000     1.549000000     2.927000000
C    -0.173000000    -1.100000000     0.714000000
H    -0.377000000    -1.895000000     1.426000000
C    -0.224000000    -1.356000000    -0.629000000
H    -0.439000000    -2.353000000    -1.005000000
C    -0.024000000    -0.313000000    -1.545000000
C    -0.109000000    -0.631000000    -3.001000000
O    -0.160000000    -1.780000000    -3.424000000
O     0.091000000     0.336000000    -3.800000000
