17
-101.68991
C    -0.936000000    -0.320000000     1.152000000
H    -1.507000000    -0.466000000     2.065000000
C     0.404000000     0.121000000     1.217000000
H     0.768000000     0.334000000     2.219000000
C     1.178000000     0.373000000     0.022000000
C     2.517000000     1.062000000     0.252000000
H     2.838000000     1.693000000    -0.580000000
H     2.466000000     1.704000000     1.134000000
H     3.327000000     0.347000000     0.410000000
C     0.643000000     0.099000000    -1.215000000
H     1.225000000     0.346000000    -2.099000000
C    -0.645000000    -0.403000000    -1.227000000
H    -1.041000000    -0.628000000    -2.214000000
C    -1.461000000    -0.615000000    -0.095000000
C    -2.870000000    -1.116000000    -0.310000000
O    -3.218000000    -1.596000000    -1.388000000
O    -3.684000000    -0.931000000     0.655000000
