17
-91.36208
C    -0.414000000     1.150000000    -0.731000000
H    -0.924000000     2.046000000    -1.075000000
C    -0.050000000     1.180000000     0.600000000
H    -0.197000000     2.023000000     1.269000000
C     0.387000000     0.016000000     1.164000000
C     0.633000000    -0.011000000     2.602000000
H     0.323000000     0.920000000     3.081000000
H     0.277000000    -0.901000000     3.126000000
H     1.722000000     0.013000000     2.673000000
C     0.395000000    -1.143000000     0.447000000
H     0.721000000    -2.050000000     0.950000000
C     0.093000000    -1.194000000    -0.956000000
H     0.060000000    -2.095000000    -1.564000000
C    -0.314000000     0.007000000    -1.542000000
C    -0.761000000     0.018000000    -2.967000000
O    -0.890000000    -1.025000000    -3.590000000
O    -1.064000000     1.054000000    -3.489000000
