17
-85.65665
C     0.185000000    -0.927000000    -1.116000000
H     0.336000000    -1.285000000    -2.131000000
C     1.163000000    -0.132000000    -0.564000000
H     2.218000000    -0.107000000    -0.823000000
C     0.862000000     0.598000000     0.566000000
C     1.901000000     1.528000000     1.171000000
H     1.982000000     2.419000000     0.545000000
H     1.785000000     1.889000000     2.195000000
H     2.870000000     1.024000000     1.142000000
C    -0.416000000     0.606000000     1.076000000
H    -0.656000000     1.292000000     1.886000000
C    -1.417000000    -0.253000000     0.532000000
H    -2.386000000    -0.287000000     1.023000000
C    -1.067000000    -0.987000000    -0.609000000
C    -2.145000000    -1.673000000    -1.381000000
O    -3.263000000    -1.714000000    -0.984000000
O    -1.950000000    -1.990000000    -2.523000000
