17
-95.84031
C    -0.720000000     0.480000000    -1.161000000
H    -1.131000000     0.951000000    -2.050000000
C    -0.359000000     1.197000000    -0.014000000
H    -0.605000000     2.255000000     0.023000000
C     0.318000000     0.619000000     1.044000000
C     0.737000000     1.513000000     2.232000000
H     0.285000000     1.212000000     3.179000000
H     1.823000000     1.591000000     2.320000000
H     0.402000000     2.533000000     2.033000000
C     0.609000000    -0.725000000     0.923000000
H     1.235000000    -1.274000000     1.622000000
C     0.189000000    -1.479000000    -0.176000000
H     0.269000000    -2.563000000    -0.184000000
C    -0.455000000    -0.825000000    -1.257000000
C    -0.834000000    -1.626000000    -2.487000000
O    -0.516000000    -2.806000000    -2.581000000
O    -1.251000000    -1.051000000    -3.470000000
