17
-81.67488
C    -0.246000000     1.001000000    -1.073000000
H    -0.397000000     1.784000000    -1.812000000
C    -0.079000000     1.217000000     0.281000000
H    -0.108000000     2.272000000     0.541000000
C     0.094000000     0.245000000     1.243000000
C     0.384000000     0.700000000     2.707000000
H     0.157000000    -0.011000000     3.505000000
H     1.466000000     0.824000000     2.636000000
H    -0.280000000     1.557000000     2.833000000
C     0.145000000    -1.103000000     0.815000000
H     0.292000000    -1.947000000     1.484000000
C     0.025000000    -1.328000000    -0.619000000
H     0.132000000    -2.334000000    -1.018000000
C    -0.235000000    -0.362000000    -1.526000000
C    -0.471000000    -0.774000000    -2.976000000
O    -0.146000000    -1.845000000    -3.308000000
O    -0.732000000     0.101000000    -3.719000000
