17
-97.91418
C    -0.403000000     1.277000000    -0.631000000
H    -0.592000000     2.296000000    -0.958000000
C    -0.060000000     1.086000000     0.704000000
H    -0.002000000     2.015000000     1.267000000
C     0.252000000    -0.173000000     1.207000000
C     0.748000000    -0.301000000     2.621000000
H     0.904000000    -1.271000000     3.096000000
H     1.668000000     0.287000000     2.592000000
H     0.012000000     0.145000000     3.293000000
C     0.201000000    -1.284000000     0.340000000
H     0.427000000    -2.264000000     0.750000000
C    -0.022000000    -1.071000000    -1.012000000
H     0.021000000    -1.926000000    -1.681000000
C    -0.420000000     0.152000000    -1.502000000
C    -0.885000000     0.325000000    -2.954000000
O    -1.240000000    -0.666000000    -3.588000000
O    -0.617000000     1.376000000    -3.544000000
