17
-97.37331
C    -0.503000000    -1.100000000    -0.937000000
H    -0.917000000    -1.852000000    -1.604000000
C    -1.038000000     0.200000000    -0.821000000
H    -1.871000000     0.559000000    -1.421000000
C    -0.416000000     1.135000000    -0.015000000
C    -1.131000000     2.450000000     0.323000000
H    -0.795000000     3.258000000    -0.331000000
H    -2.218000000     2.425000000     0.229000000
H    -0.949000000     2.804000000     1.340000000
C     0.649000000     0.773000000     0.786000000
H     1.061000000     1.489000000     1.492000000
C     1.250000000    -0.483000000     0.618000000
H     2.073000000    -0.689000000     1.298000000
C     0.641000000    -1.387000000    -0.226000000
C     1.224000000    -2.821000000    -0.218000000
O     2.318000000    -3.028000000     0.270000000
O     0.628000000    -3.728000000    -0.775000000
