17
-96.35472
C     0.430000000    -0.413000000    -1.414000000
H     0.371000000    -0.678000000    -2.467000000
C    -0.264000000     0.764000000    -1.077000000
H    -0.637000000     1.464000000    -1.820000000
C    -0.505000000     1.080000000     0.282000000
C    -1.341000000     2.270000000     0.732000000
H    -1.150000000     3.125000000     0.081000000
H    -2.417000000     2.093000000     0.681000000
H    -1.161000000     2.590000000     1.760000000
C    -0.177000000     0.184000000     1.276000000
H    -0.219000000     0.483000000     2.321000000
C     0.477000000    -1.008000000     0.914000000
H     0.688000000    -1.699000000     1.726000000
C     0.905000000    -1.314000000    -0.410000000
C     1.505000000    -2.663000000    -0.775000000
O     1.909000000    -3.407000000     0.130000000
O     1.584000000    -2.875000000    -1.947000000
