17
-98.83578
C    -0.185000000     0.278000000    -1.393000000
H    -0.438000000     0.634000000    -2.388000000
C     0.286000000     1.161000000    -0.448000000
H     0.566000000     2.148000000    -0.807000000
C     0.387000000     0.806000000     0.892000000
C     1.004000000     1.857000000     1.819000000
H     0.555000000     1.812000000     2.814000000
H     2.088000000     1.773000000     1.915000000
H     0.692000000     2.827000000     1.426000000
C     0.043000000    -0.549000000     1.255000000
H     0.094000000    -0.846000000     2.299000000
C    -0.418000000    -1.417000000     0.291000000
H    -0.609000000    -2.464000000     0.514000000
C    -0.526000000    -1.059000000    -1.046000000
C    -1.088000000    -2.029000000    -2.097000000
O    -1.607000000    -3.114000000    -1.766000000
O    -0.843000000    -1.819000000    -3.276000000
