17
-88.00817
C    -0.376000000    -0.883000000    -1.154000000
H    -0.745000000    -1.369000000    -2.054000000
C    -1.194000000     0.025000000    -0.416000000
H    -2.229000000     0.140000000    -0.728000000
C    -0.680000000     0.808000000     0.582000000
C    -1.698000000     1.749000000     1.201000000
H    -2.062000000     2.443000000     0.441000000
H    -2.562000000     1.333000000     1.724000000
H    -1.258000000     2.496000000     1.865000000
C     0.638000000     0.676000000     0.966000000
H     0.971000000     1.249000000     1.828000000
C     1.430000000    -0.381000000     0.447000000
H     2.469000000    -0.481000000     0.749000000
C     0.947000000    -1.034000000    -0.712000000
C     1.884000000    -1.929000000    -1.450000000
O     2.880000000    -2.274000000    -0.859000000
O     1.580000000    -2.576000000    -2.436000000
