17
-98.43707
C    -0.142000000     0.307000000    -1.465000000
H    -0.079000000     0.712000000    -2.472000000
C    -0.106000000     1.241000000    -0.444000000
H    -0.111000000     2.271000000    -0.792000000
C     0.026000000     0.815000000     0.847000000
C     0.003000000     1.830000000     2.026000000
H     1.013000000     2.048000000     2.380000000
H    -0.598000000     2.705000000     1.770000000
H    -0.460000000     1.456000000     2.942000000
C     0.093000000    -0.513000000     1.203000000
H     0.360000000    -0.845000000     2.203000000
C     0.136000000    -1.447000000     0.190000000
H     0.306000000    -2.502000000     0.390000000
C    -0.082000000    -1.043000000    -1.163000000
C    -0.141000000    -2.053000000    -2.276000000
O    -0.188000000    -3.239000000    -1.876000000
O    -0.029000000    -1.735000000    -3.458000000
