17
-100.38866
C    -0.343000000    -0.720000000     1.289000000
H    -0.512000000    -1.175000000     2.262000000
C    -0.220000000     0.694000000     1.122000000
H    -0.304000000     1.439000000     1.908000000
C     0.118000000     1.227000000    -0.151000000
C     0.231000000     2.744000000    -0.421000000
H     0.776000000     3.161000000     0.428000000
H     0.782000000     2.880000000    -1.354000000
H    -0.720000000     3.279000000    -0.374000000
C     0.336000000     0.342000000    -1.188000000
H     0.656000000     0.716000000    -2.157000000
C     0.212000000    -1.034000000    -1.008000000
H     0.345000000    -1.716000000    -1.843000000
C    -0.236000000    -1.557000000     0.189000000
C    -0.324000000    -3.030000000     0.368000000
O    -0.053000000    -3.844000000    -0.548000000
O    -0.744000000    -3.400000000     1.472000000
