17
-90.37107
C    -0.906000000    -1.161000000     0.116000000
H    -1.671000000    -1.877000000     0.405000000
C    -1.166000000     0.152000000     0.542000000
H    -2.045000000     0.394000000     1.134000000
C    -0.221000000     1.152000000     0.276000000
C    -0.535000000     2.575000000     0.742000000
H    -0.307000000     2.699000000     1.802000000
H     0.029000000     3.360000000     0.235000000
H    -1.542000000     2.896000000     0.465000000
C     0.908000000     0.829000000    -0.471000000
H     1.568000000     1.653000000    -0.733000000
C     1.215000000    -0.472000000    -0.780000000
H     2.168000000    -0.780000000    -1.202000000
C     0.311000000    -1.504000000    -0.451000000
C     0.650000000    -2.906000000    -0.618000000
O     1.697000000    -3.231000000    -1.079000000
O    -0.149000000    -3.783000000    -0.380000000
