17
-95.61001
C     0.558000000    -1.289000000    -0.492000000
H     1.174000000    -2.075000000    -0.920000000
C     1.257000000    -0.185000000    -0.139000000
H     2.325000000    -0.119000000    -0.328000000
C     0.628000000     1.038000000     0.161000000
C     1.506000000     2.200000000     0.622000000
H     0.867000000     3.084000000     0.672000000
H     2.014000000     2.088000000     1.582000000
H     2.370000000     2.387000000    -0.020000000
C    -0.791000000     1.040000000     0.320000000
H    -1.348000000     1.910000000     0.656000000
C    -1.490000000    -0.125000000     0.106000000
H    -2.575000000    -0.203000000     0.122000000
C    -0.803000000    -1.287000000    -0.318000000
C    -1.663000000    -2.501000000    -0.587000000
O    -2.836000000    -2.319000000    -0.883000000
O    -1.189000000    -3.642000000    -0.552000000
