17
-94.80313
C     0.406000000    -1.086000000    -0.810000000
H     0.801000000    -1.754000000    -1.571000000
C     0.955000000     0.199000000    -0.861000000
H     1.682000000     0.397000000    -1.644000000
C     0.473000000     1.153000000    -0.042000000
C     0.854000000     2.558000000    -0.316000000
H     0.971000000     2.828000000    -1.367000000
H     0.063000000     3.227000000     0.031000000
H     1.698000000     2.806000000     0.331000000
C    -0.548000000     0.799000000     0.893000000
H    -0.993000000     1.541000000     1.551000000
C    -1.006000000    -0.531000000     1.030000000
H    -1.716000000    -0.695000000     1.837000000
C    -0.538000000    -1.491000000     0.136000000
C    -0.946000000    -2.922000000     0.241000000
O    -1.806000000    -3.292000000     1.012000000
O    -0.358000000    -3.739000000    -0.444000000
