17
-92.44569
C     0.132000000    -1.385000000    -0.449000000
H     0.262000000    -2.451000000    -0.617000000
C     1.066000000    -0.754000000     0.415000000
H     1.936000000    -1.280000000     0.798000000
C     0.905000000     0.641000000     0.666000000
C     1.728000000     1.357000000     1.594000000
H     1.222000000     1.691000000     2.502000000
H     2.578000000     0.759000000     1.926000000
H     2.137000000     2.248000000     1.112000000
C    -0.188000000     1.275000000     0.067000000
H    -0.360000000     2.329000000     0.268000000
C    -1.142000000     0.562000000    -0.739000000
H    -1.985000000     1.142000000    -1.107000000
C    -1.050000000    -0.760000000    -0.959000000
C    -2.087000000    -1.534000000    -1.700000000
O    -3.191000000    -1.093000000    -2.050000000
O    -1.964000000    -2.748000000    -1.732000000
