17
-95.36826
C    -1.421000000    -0.387000000    -0.181000000
H    -2.438000000    -0.706000000    -0.395000000
C    -0.751000000     0.405000000    -1.113000000
H    -1.210000000     0.714000000    -2.049000000
C     0.562000000     0.675000000    -0.775000000
C     1.524000000     1.260000000    -1.838000000
H     2.494000000     0.758000000    -1.840000000
H     1.091000000     1.138000000    -2.833000000
H     1.652000000     2.344000000    -1.807000000
C     1.198000000     0.297000000     0.382000000
H     2.260000000     0.436000000     0.562000000
C     0.414000000    -0.268000000     1.405000000
H     0.913000000    -0.472000000     2.349000000
C    -0.899000000    -0.718000000     1.092000000
C    -1.647000000    -1.556000000     2.125000000
O    -1.072000000    -1.822000000     3.150000000
O    -2.669000000    -2.094000000     1.764000000
