17
-86.82900
C    -0.665000000    -1.118000000    -0.813000000
H    -0.956000000    -1.859000000    -1.553000000
C     0.177000000    -0.034000000    -1.310000000
H     0.448000000     0.027000000    -2.361000000
C     0.581000000     1.006000000    -0.417000000
C     1.482000000     2.050000000    -1.000000000
H     2.419000000     1.644000000    -1.387000000
H     0.985000000     2.708000000    -1.715000000
H     1.798000000     2.585000000    -0.102000000
C     0.391000000     0.882000000     0.900000000
H     0.667000000     1.695000000     1.566000000
C    -0.198000000    -0.268000000     1.409000000
H    -0.311000000    -0.392000000     2.483000000
C    -0.805000000    -1.183000000     0.581000000
C    -1.734000000    -2.286000000     1.072000000
O    -1.775000000    -2.563000000     2.279000000
O    -2.508000000    -2.891000000     0.373000000
