17
-100.38659
C    -0.716000000    -1.097000000    -0.596000000
H    -1.208000000    -1.851000000    -1.205000000
C    -0.090000000    -0.083000000    -1.350000000
H    -0.046000000    -0.138000000    -2.435000000
C     0.502000000     0.937000000    -0.593000000
C     1.176000000     2.026000000    -1.419000000
H     0.425000000     2.806000000    -1.559000000
H     2.010000000     2.445000000    -0.852000000
H     1.636000000     1.692000000    -2.351000000
C     0.505000000     0.927000000     0.791000000
H     0.907000000     1.774000000     1.341000000
C    -0.103000000    -0.126000000     1.523000000
H    -0.075000000    -0.088000000     2.609000000
C    -0.636000000    -1.166000000     0.810000000
C    -1.310000000    -2.354000000     1.585000000
O    -1.238000000    -2.400000000     2.793000000
O    -1.734000000    -3.296000000     0.915000000
