17
-95.29922
C    -1.255000000     0.021000000     0.735000000
H    -2.240000000    -0.061000000     1.189000000
C    -1.103000000    -0.061000000    -0.653000000
H    -1.974000000    -0.184000000    -1.292000000
C     0.165000000    -0.093000000    -1.231000000
C     0.315000000    -0.272000000    -2.703000000
H    -0.117000000    -1.199000000    -3.086000000
H    -0.279000000     0.538000000    -3.132000000
H     1.304000000     0.049000000    -3.037000000
C     1.306000000    -0.032000000    -0.410000000
H     2.285000000     0.015000000    -0.880000000
C     1.130000000     0.125000000     0.949000000
H     1.956000000     0.195000000     1.652000000
C    -0.168000000     0.128000000     1.565000000
C    -0.397000000     0.188000000     3.039000000
O     0.575000000     0.372000000     3.738000000
O    -1.504000000     0.279000000     3.550000000
