17
-92.57378
C    -0.384000000     1.121000000     0.855000000
H    -0.703000000     2.064000000     1.291000000
C    -0.984000000     0.777000000    -0.399000000
H    -1.817000000     1.400000000    -0.716000000
C    -0.553000000    -0.377000000    -1.073000000
C    -1.194000000    -0.715000000    -2.372000000
H    -0.732000000    -0.005000000    -3.061000000
H    -0.888000000    -1.720000000    -2.670000000
H    -2.286000000    -0.684000000    -2.389000000
C     0.456000000    -1.120000000    -0.562000000
H     0.857000000    -2.009000000    -1.042000000
C     0.945000000    -0.810000000     0.729000000
H     1.783000000    -1.396000000     1.097000000
C     0.613000000     0.363000000     1.417000000
C     1.371000000     0.896000000     2.648000000
O     2.304000000     0.226000000     3.109000000
O     1.218000000     1.983000000     3.132000000
