17
-98.30863
C    -1.277000000    -0.748000000    -0.308000000
H    -2.148000000    -1.316000000    -0.628000000
C    -0.358000000    -0.297000000    -1.245000000
H    -0.597000000    -0.435000000    -2.297000000
C     0.810000000     0.375000000    -0.883000000
C     1.904000000     0.842000000    -1.837000000
H     1.936000000     1.933000000    -1.804000000
H     2.852000000     0.464000000    -1.449000000
H     1.671000000     0.386000000    -2.802000000
C     1.064000000     0.491000000     0.465000000
H     1.953000000     0.966000000     0.870000000
C     0.124000000     0.180000000     1.403000000
H     0.370000000     0.329000000     2.451000000
C    -1.072000000    -0.380000000     1.046000000
C    -2.099000000    -0.845000000     2.071000000
O    -1.984000000    -0.557000000     3.276000000
O    -3.145000000    -1.386000000     1.675000000
