17
-90.98603
C     0.115000000     1.121000000     0.971000000
H     0.273000000     1.985000000     1.612000000
C    -0.476000000     1.184000000    -0.280000000
H    -0.983000000     2.069000000    -0.655000000
C    -0.586000000     0.023000000    -1.034000000
C    -1.308000000     0.069000000    -2.413000000
H    -0.664000000    -0.332000000    -3.199000000
H    -2.199000000    -0.520000000    -2.185000000
H    -1.621000000     1.090000000    -2.640000000
C    -0.039000000    -1.159000000    -0.636000000
H    -0.143000000    -2.018000000    -1.294000000
C     0.572000000    -1.225000000     0.592000000
H     1.023000000    -2.122000000     1.007000000
C     0.779000000    -0.096000000     1.349000000
C     1.516000000    -0.051000000     2.613000000
O     1.885000000    -1.057000000     3.121000000
O     1.858000000     1.031000000     3.078000000
