17
-92.44593
C     0.752000000     1.055000000     0.786000000
H     1.228000000     1.874000000     1.319000000
C     0.060000000     1.334000000    -0.391000000
H     0.110000000     2.286000000    -0.912000000
C    -0.555000000     0.287000000    -1.067000000
C    -1.371000000     0.429000000    -2.300000000
H    -2.409000000     0.148000000    -2.110000000
H    -1.362000000     1.466000000    -2.643000000
H    -1.087000000    -0.311000000    -3.051000000
C    -0.512000000    -1.045000000    -0.471000000
H    -1.014000000    -1.774000000    -1.103000000
C     0.120000000    -1.277000000     0.740000000
H     0.146000000    -2.312000000     1.069000000
C     0.812000000    -0.227000000     1.316000000
C     1.524000000    -0.530000000     2.565000000
O     1.615000000    -1.702000000     2.902000000
O     1.946000000     0.295000000     3.350000000
