17
-98.73670
C     0.297000000     1.138000000     0.889000000
H     0.453000000     2.032000000     1.488000000
C    -0.181000000     1.271000000    -0.412000000
H    -0.399000000     2.247000000    -0.839000000
C    -0.325000000     0.128000000    -1.188000000
C    -0.727000000     0.129000000    -2.668000000
H    -1.415000000     0.961000000    -2.829000000
H     0.126000000     0.220000000    -3.344000000
H    -1.317000000    -0.762000000    -2.894000000
C    -0.241000000    -1.095000000    -0.556000000
H    -0.515000000    -1.991000000    -1.107000000
C     0.191000000    -1.192000000     0.750000000
H     0.243000000    -2.192000000     1.173000000
C     0.523000000    -0.098000000     1.491000000
C     0.975000000    -0.230000000     2.962000000
O     1.598000000    -1.216000000     3.359000000
O     0.708000000     0.658000000     3.731000000
