17
-93.17178
C     0.488000000     1.406000000     0.560000000
H     0.697000000     2.415000000     0.907000000
C    -0.214000000     1.126000000    -0.653000000
H    -0.506000000     1.927000000    -1.328000000
C    -0.556000000    -0.198000000    -1.091000000
C    -1.468000000    -0.386000000    -2.301000000
H    -1.242000000    -1.412000000    -2.599000000
H    -2.509000000    -0.294000000    -1.982000000
H    -1.274000000     0.290000000    -3.136000000
C    -0.225000000    -1.269000000    -0.292000000
H    -0.523000000    -2.277000000    -0.569000000
C     0.500000000    -1.036000000     0.882000000
H     0.561000000    -1.932000000     1.495000000
C     0.838000000     0.300000000     1.344000000
C     1.638000000     0.415000000     2.602000000
O     1.906000000    -0.595000000     3.212000000
O     1.886000000     1.527000000     2.953000000
