17
-98.70555
C     1.016000000     0.790000000     0.619000000
H     1.864000000     1.391000000     0.936000000
C     0.629000000     0.814000000    -0.715000000
H     1.265000000     1.379000000    -1.392000000
C    -0.393000000     0.030000000    -1.220000000
C    -0.729000000     0.114000000    -2.680000000
H    -1.121000000     1.096000000    -2.952000000
H     0.171000000     0.001000000    -3.288000000
H    -1.441000000    -0.675000000    -2.931000000
C    -1.027000000    -0.795000000    -0.262000000
H    -1.825000000    -1.489000000    -0.514000000
C    -0.633000000    -0.890000000     1.087000000
H    -1.134000000    -1.527000000     1.811000000
C     0.410000000    -0.136000000     1.538000000
C     0.879000000    -0.059000000     2.969000000
O     0.443000000    -0.884000000     3.719000000
O     1.633000000     0.845000000     3.279000000
