17
-94.58313
C     1.352000000    -0.096000000     0.668000000
H     2.343000000    -0.039000000     1.110000000
C     1.167000000    -0.153000000    -0.699000000
H     2.038000000    -0.153000000    -1.350000000
C    -0.118000000     0.025000000    -1.239000000
C    -0.379000000     0.020000000    -2.752000000
H    -1.217000000     0.707000000    -2.887000000
H     0.572000000     0.208000000    -3.254000000
H    -0.666000000    -1.008000000    -2.980000000
C    -1.198000000     0.011000000    -0.359000000
H    -2.158000000     0.045000000    -0.868000000
C    -1.025000000    -0.021000000     0.974000000
H    -1.898000000    -0.040000000     1.621000000
C     0.252000000    -0.081000000     1.556000000
C     0.322000000     0.198000000     3.074000000
O    -0.767000000     0.253000000     3.723000000
O     1.373000000     0.118000000     3.667000000
