17
-91.26525
C     1.062000000     0.936000000     0.390000000
H     1.898000000     1.612000000     0.554000000
C     0.676000000     0.622000000    -0.920000000
H     1.073000000     1.042000000    -1.841000000
C    -0.242000000    -0.375000000    -1.139000000
C    -0.825000000    -0.513000000    -2.525000000
H     0.070000000    -0.740000000    -3.107000000
H    -1.314000000    -1.489000000    -2.527000000
H    -1.272000000     0.439000000    -2.822000000
C    -0.836000000    -1.038000000    -0.118000000
H    -1.568000000    -1.831000000    -0.247000000
C    -0.484000000    -0.690000000     1.181000000
H    -1.064000000    -1.117000000     1.995000000
C     0.503000000     0.301000000     1.453000000
C     0.690000000     0.831000000     2.855000000
O    -0.037000000     0.458000000     3.773000000
O     1.672000000     1.547000000     3.042000000
