17
-91.52882
C     1.273000000     0.038000000     0.821000000
H     2.135000000    -0.186000000     1.444000000
C     1.190000000    -0.063000000    -0.614000000
H     2.127000000    -0.202000000    -1.147000000
C    -0.039000000    -0.133000000    -1.218000000
C    -0.108000000    -0.350000000    -2.720000000
H    -1.024000000     0.101000000    -3.108000000
H     0.714000000    -0.076000000    -3.385000000
H    -0.239000000    -1.411000000    -2.940000000
C    -1.197000000     0.028000000    -0.484000000
H    -2.147000000    -0.043000000    -1.008000000
C    -1.118000000     0.262000000     0.884000000
H    -2.089000000     0.441000000     1.341000000
C     0.100000000     0.244000000     1.594000000
C     0.144000000     0.407000000     3.115000000
O    -0.892000000     0.333000000     3.729000000
O     1.162000000     0.602000000     3.690000000
