17
-102.13848
C     1.031000000     0.576000000     0.925000000
H     1.883000000     0.844000000     1.544000000
C     1.124000000     0.526000000    -0.467000000
H     2.050000000     0.745000000    -0.992000000
C     0.077000000     0.028000000    -1.220000000
C     0.222000000    -0.045000000    -2.728000000
H     0.398000000     0.867000000    -3.302000000
H     1.012000000    -0.783000000    -2.879000000
H    -0.697000000    -0.534000000    -3.056000000
C    -1.074000000    -0.430000000    -0.626000000
H    -1.868000000    -0.864000000    -1.228000000
C    -1.167000000    -0.350000000     0.781000000
H    -2.065000000    -0.706000000     1.279000000
C    -0.133000000     0.162000000     1.559000000
C    -0.235000000    -0.012000000     3.080000000
O    -1.244000000    -0.520000000     3.570000000
O     0.680000000     0.498000000     3.768000000
