17
-97.27904
C     0.585000000     0.959000000     0.979000000
H     1.048000000     1.687000000     1.640000000
C     0.643000000     1.148000000    -0.412000000
H     1.150000000     1.962000000    -0.923000000
C     0.039000000     0.142000000    -1.177000000
C    -0.129000000     0.373000000    -2.700000000
H     0.613000000     1.067000000    -3.100000000
H     0.114000000    -0.550000000    -3.230000000
H    -1.114000000     0.769000000    -2.956000000
C    -0.476000000    -0.998000000    -0.609000000
H    -0.736000000    -1.806000000    -1.288000000
C    -0.470000000    -1.238000000     0.760000000
H    -0.969000000    -2.136000000     1.115000000
C     0.046000000    -0.197000000     1.568000000
C    -0.020000000    -0.377000000     3.036000000
O    -0.495000000    -1.408000000     3.533000000
O     0.179000000     0.598000000     3.763000000
