17
-88.79336
C     0.717000000     1.175000000     0.478000000
H     1.311000000     2.060000000     0.692000000
C     0.567000000     0.822000000    -0.893000000
H     1.087000000     1.466000000    -1.597000000
C    -0.126000000    -0.313000000    -1.167000000
C    -0.430000000    -0.670000000    -2.614000000
H    -1.365000000    -1.195000000    -2.822000000
H    -0.321000000     0.210000000    -3.251000000
H     0.350000000    -1.367000000    -2.928000000
C    -0.645000000    -1.082000000    -0.171000000
H    -1.234000000    -1.946000000    -0.466000000
C    -0.422000000    -0.792000000     1.172000000
H    -0.898000000    -1.460000000     1.885000000
C     0.227000000     0.399000000     1.524000000
C     0.454000000     0.760000000     3.006000000
O     0.052000000     0.035000000     3.876000000
O     0.670000000     1.900000000     3.282000000
