17
-92.96876
C    -0.085000000     0.342000000     1.407000000
H    -0.091000000     0.427000000     2.490000000
C     1.109000000     0.281000000     0.744000000
H     2.103000000     0.363000000     1.177000000
C     1.064000000    -0.109000000    -0.604000000
C     2.336000000    -0.195000000    -1.404000000
H     3.148000000    -0.568000000    -0.776000000
H     2.119000000    -0.977000000    -2.135000000
H     2.475000000     0.752000000    -1.929000000
C    -0.138000000    -0.256000000    -1.272000000
H    -0.138000000    -0.363000000    -2.354000000
C    -1.313000000    -0.035000000    -0.572000000
H    -2.314000000    -0.179000000    -0.972000000
C    -1.330000000     0.237000000     0.759000000
C    -2.657000000     0.206000000     1.593000000
O    -3.552000000    -0.449000000     1.082000000
O    -2.731000000     0.518000000     2.767000000
