17
-86.08340
C     0.817000000     1.150000000     0.359000000
H     1.142000000     2.173000000     0.532000000
C     0.464000000     0.754000000    -0.939000000
H     0.677000000     1.385000000    -1.797000000
C    -0.322000000    -0.384000000    -1.142000000
C    -0.726000000    -0.854000000    -2.523000000
H    -1.341000000    -1.735000000    -2.720000000
H    -1.222000000    -0.004000000    -2.995000000
H     0.260000000    -0.907000000    -2.990000000
C    -0.553000000    -1.219000000    -0.036000000
H    -1.092000000    -2.156000000    -0.152000000
C    -0.234000000    -0.791000000     1.231000000
H    -0.696000000    -1.455000000     1.957000000
C     0.430000000     0.463000000     1.496000000
C     0.728000000     1.043000000     2.871000000
O     0.388000000     0.441000000     3.862000000
O     1.279000000     2.091000000     2.988000000
