17
-90.95469
C     0.674000000     0.916000000     0.901000000
H     1.218000000     1.693000000     1.433000000
C     0.376000000     1.177000000    -0.418000000
H     0.626000000     2.158000000    -0.815000000
C    -0.221000000     0.234000000    -1.223000000
C    -0.496000000     0.507000000    -2.685000000
H    -1.495000000     0.945000000    -2.738000000
H     0.283000000     1.143000000    -3.110000000
H    -0.609000000    -0.431000000    -3.232000000
C    -0.620000000    -1.008000000    -0.672000000
H    -1.015000000    -1.831000000    -1.261000000
C    -0.415000000    -1.215000000     0.755000000
H    -0.618000000    -2.211000000     1.141000000
C     0.342000000    -0.306000000     1.560000000
C     0.677000000    -0.557000000     3.041000000
O     0.316000000    -1.582000000     3.584000000
O     0.985000000     0.373000000     3.740000000
