17
-99.58943
C     0.714000000     1.239000000     0.446000000
H     1.219000000     2.189000000     0.604000000
C     1.059000000     0.457000000    -0.660000000
H     1.995000000     0.662000000    -1.175000000
C     0.281000000    -0.660000000    -0.983000000
C     0.661000000    -1.482000000    -2.192000000
H     0.228000000    -2.484000000    -2.201000000
H     0.277000000    -1.035000000    -3.111000000
H     1.742000000    -1.634000000    -2.247000000
C    -0.846000000    -0.977000000    -0.239000000
H    -1.399000000    -1.888000000    -0.449000000
C    -1.180000000    -0.252000000     0.852000000
H    -1.992000000    -0.538000000     1.515000000
C    -0.398000000     0.891000000     1.243000000
C    -0.686000000     1.609000000     2.509000000
O    -1.630000000     1.292000000     3.264000000
O    -0.045000000     2.615000000     2.818000000
