17
-87.80131
C     0.636000000     1.325000000     0.336000000
H     1.237000000     2.226000000     0.423000000
C     0.776000000     0.648000000    -0.858000000
H     1.448000000     0.988000000    -1.642000000
C     0.187000000    -0.539000000    -1.076000000
C     0.213000000    -1.300000000    -2.438000000
H    -0.823000000    -1.641000000    -2.496000000
H     0.622000000    -0.643000000    -3.208000000
H     0.774000000    -2.217000000    -2.249000000
C    -0.597000000    -1.172000000    -0.112000000
H    -1.064000000    -2.144000000    -0.247000000
C    -0.714000000    -0.583000000     1.169000000
H    -1.360000000    -1.035000000     1.917000000
C    -0.128000000     0.710000000     1.386000000
C    -0.392000000     1.586000000     2.662000000
O    -0.796000000     1.051000000     3.698000000
O    -0.016000000     2.745000000     2.740000000
