17
-92.34471
C     0.423000000     1.162000000     0.827000000
H     0.836000000     2.000000000     1.382000000
C     1.156000000     0.554000000    -0.197000000
H     2.140000000     0.887000000    -0.521000000
C     0.621000000    -0.487000000    -0.928000000
C     1.280000000    -1.100000000    -2.116000000
H     1.135000000    -2.179000000    -2.193000000
H     0.705000000    -0.620000000    -2.910000000
H     2.335000000    -0.817000000    -2.142000000
C    -0.628000000    -0.998000000    -0.605000000
H    -0.944000000    -1.899000000    -1.124000000
C    -1.314000000    -0.446000000     0.500000000
H    -2.154000000    -1.027000000     0.871000000
C    -0.803000000     0.660000000     1.165000000
C    -1.489000000     1.329000000     2.300000000
O    -2.453000000     0.806000000     2.775000000
O    -0.841000000     2.176000000     2.924000000
