17
-83.66481
C     0.437000000     1.418000000    -0.049000000
H     0.659000000     2.474000000    -0.176000000
C    -0.417000000     0.824000000    -1.010000000
H    -0.683000000     1.384000000    -1.903000000
C    -0.743000000    -0.536000000    -0.821000000
C    -1.521000000    -1.382000000    -1.807000000
H    -2.590000000    -1.422000000    -1.589000000
H    -1.406000000    -0.803000000    -2.726000000
H    -1.052000000    -2.325000000    -2.095000000
C    -0.356000000    -1.178000000     0.297000000
H    -0.757000000    -2.165000000     0.514000000
C     0.504000000    -0.636000000     1.265000000
H     0.739000000    -1.189000000     2.171000000
C     0.969000000     0.700000000     1.056000000
C     1.779000000     1.452000000     2.055000000
O     2.066000000     0.952000000     3.094000000
O     2.379000000     2.431000000     1.721000000
