17
-91.51452
C    -0.135000000     1.409000000     0.364000000
H    -0.447000000     2.396000000     0.697000000
C    -1.042000000     0.696000000    -0.388000000
H    -1.913000000     1.129000000    -0.875000000
C    -0.744000000    -0.560000000    -0.748000000
C    -1.719000000    -1.311000000    -1.651000000
H    -1.304000000    -2.313000000    -1.786000000
H    -2.692000000    -1.431000000    -1.171000000
H    -1.824000000    -0.909000000    -2.661000000
C     0.458000000    -1.205000000    -0.290000000
H     0.746000000    -2.204000000    -0.609000000
C     1.232000000    -0.492000000     0.606000000
H     2.063000000    -1.026000000     1.060000000
C     0.947000000     0.783000000     0.959000000
C     1.875000000     1.486000000     1.896000000
O     2.788000000     0.899000000     2.450000000
O     1.711000000     2.658000000     2.147000000
