17
-98.19282
C    -0.445000000     1.368000000     0.398000000
H    -0.763000000     2.391000000     0.585000000
C     0.593000000     1.043000000    -0.495000000
H     1.101000000     1.871000000    -0.984000000
C     0.907000000    -0.286000000    -0.799000000
C     2.001000000    -0.581000000    -1.866000000
H     2.480000000     0.325000000    -2.244000000
H     2.761000000    -1.197000000    -1.380000000
H     1.572000000    -1.145000000    -2.697000000
C     0.252000000    -1.316000000    -0.140000000
H     0.315000000    -2.332000000    -0.523000000
C    -0.763000000    -1.001000000     0.739000000
H    -1.354000000    -1.802000000     1.176000000
C    -1.134000000     0.337000000     1.073000000
C    -2.221000000     0.678000000     2.088000000
O    -3.034000000    -0.145000000     2.476000000
O    -2.271000000     1.795000000     2.585000000
