17
-92.69319
C     0.882000000     1.160000000     0.017000000
H     1.495000000     2.054000000    -0.061000000
C     0.601000000     0.413000000    -1.118000000
H     1.047000000     0.736000000    -2.055000000
C    -0.291000000    -0.673000000    -1.027000000
C    -0.795000000    -1.321000000    -2.288000000
H    -0.112000000    -2.068000000    -2.696000000
H    -1.830000000    -1.637000000    -2.142000000
H    -0.821000000    -0.521000000    -3.031000000
C    -0.817000000    -1.017000000     0.213000000
H    -1.501000000    -1.832000000     0.436000000
C    -0.418000000    -0.310000000     1.346000000
H    -0.668000000    -0.719000000     2.321000000
C     0.471000000     0.755000000     1.273000000
C     0.832000000     1.431000000     2.590000000
O     0.355000000     1.169000000     3.670000000
O     1.577000000     2.373000000     2.545000000
