17
-92.91510
C     1.233000000     0.664000000    -0.550000000
H     2.237000000     0.973000000    -0.830000000
C     0.849000000    -0.580000000    -0.787000000
H     1.555000000    -1.229000000    -1.299000000
C    -0.366000000    -1.089000000    -0.295000000
C    -0.874000000    -2.535000000    -0.669000000
H    -1.921000000    -2.741000000    -0.441000000
H    -0.739000000    -2.668000000    -1.745000000
H    -0.308000000    -3.299000000    -0.131000000
C    -1.226000000    -0.290000000     0.468000000
H    -2.167000000    -0.626000000     0.893000000
C    -0.773000000     0.989000000     0.767000000
H    -1.305000000     1.617000000     1.477000000
C     0.439000000     1.466000000     0.282000000
C     0.945000000     2.792000000     0.772000000
O     0.356000000     3.405000000     1.640000000
O     2.062000000     3.156000000     0.453000000
