17
-93.31418
C    -0.272000000     1.444000000     0.267000000
H    -0.590000000     2.481000000     0.340000000
C    -1.100000000     0.566000000    -0.524000000
H    -2.054000000     0.919000000    -0.908000000
C    -0.698000000    -0.751000000    -0.748000000
C    -1.496000000    -1.775000000    -1.505000000
H    -2.143000000    -1.264000000    -2.221000000
H    -0.828000000    -2.436000000    -2.061000000
H    -2.102000000    -2.322000000    -0.780000000
C     0.505000000    -1.217000000    -0.159000000
H     0.868000000    -2.225000000    -0.343000000
C     1.250000000    -0.379000000     0.647000000
H     2.171000000    -0.661000000     1.151000000
C     0.868000000     1.011000000     0.844000000
C     1.642000000     1.941000000     1.789000000
O     2.624000000     1.575000000     2.366000000
O     1.358000000     3.095000000     1.844000000
