17
-97.29376
C    -0.519000000     0.940000000     0.973000000
H    -0.916000000     1.484000000     1.826000000
C     0.335000000    -0.136000000     1.242000000
H     0.551000000    -0.340000000     2.287000000
C     0.716000000    -0.971000000     0.236000000
C     1.612000000    -2.137000000     0.512000000
H     1.107000000    -2.860000000     1.155000000
H     2.080000000    -2.546000000    -0.386000000
H     2.407000000    -1.758000000     1.158000000
C     0.354000000    -0.697000000    -1.093000000
H     0.764000000    -1.378000000    -1.835000000
C    -0.513000000     0.377000000    -1.298000000
H    -0.879000000     0.651000000    -2.284000000
C    -0.900000000     1.245000000    -0.334000000
C    -1.868000000     2.366000000    -0.630000000
O    -2.220000000     2.626000000    -1.805000000
O    -2.112000000     3.128000000     0.282000000
