17
-95.14490
C     0.411000000     0.822000000     1.151000000
H     0.882000000     1.494000000     1.863000000
C     0.875000000    -0.478000000     0.920000000
H     1.670000000    -0.771000000     1.601000000
C     0.405000000    -1.138000000    -0.159000000
C     0.973000000    -2.483000000    -0.565000000
H     1.504000000    -3.058000000     0.195000000
H     0.037000000    -3.025000000    -0.722000000
H     1.454000000    -2.585000000    -1.540000000
C    -0.601000000    -0.591000000    -0.936000000
H    -0.994000000    -1.208000000    -1.740000000
C    -1.078000000     0.704000000    -0.732000000
H    -1.681000000     1.228000000    -1.469000000
C    -0.563000000     1.414000000     0.336000000
C    -1.005000000     2.845000000     0.525000000
O    -1.937000000     3.346000000    -0.085000000
O    -0.347000000     3.490000000     1.355000000
