17
-88.66517
C    -0.521000000     1.304000000     0.549000000
H    -0.818000000     2.276000000     0.934000000
C     0.262000000     1.171000000    -0.581000000
H     0.623000000     2.074000000    -1.066000000
C     0.697000000    -0.038000000    -1.043000000
C     1.646000000    -0.301000000    -2.215000000
H     2.581000000     0.259000000    -2.158000000
H     1.903000000    -1.362000000    -2.169000000
H     1.064000000    -0.190000000    -3.133000000
C     0.255000000    -1.179000000    -0.353000000
H     0.543000000    -2.170000000    -0.692000000
C    -0.560000000    -1.040000000     0.798000000
H    -0.864000000    -1.942000000     1.323000000
C    -1.002000000     0.155000000     1.234000000
C    -1.724000000     0.318000000     2.547000000
O    -1.706000000    -0.606000000     3.289000000
O    -2.378000000     1.273000000     2.736000000
