17
-96.92170
C    -0.553000000     0.922000000     1.031000000
H    -0.902000000     1.557000000     1.841000000
C     0.026000000    -0.339000000     1.278000000
H     0.158000000    -0.731000000     2.283000000
C     0.484000000    -1.103000000     0.269000000
C     1.263000000    -2.324000000     0.552000000
H     1.961000000    -2.460000000    -0.276000000
H     1.837000000    -2.260000000     1.479000000
H     0.607000000    -3.196000000     0.569000000
C     0.335000000    -0.660000000    -1.063000000
H     0.747000000    -1.293000000    -1.845000000
C    -0.233000000     0.565000000    -1.369000000
H    -0.428000000     0.917000000    -2.379000000
C    -0.862000000     1.265000000    -0.301000000
C    -1.370000000     2.705000000    -0.593000000
O    -1.014000000     3.209000000    -1.722000000
O    -2.049000000     3.230000000     0.245000000
