17
-94.27412
C     0.489000000     0.780000000     1.160000000
H     0.795000000     1.389000000     2.007000000
C     1.146000000    -0.353000000     0.694000000
H     1.981000000    -0.862000000     1.169000000
C     0.605000000    -1.014000000    -0.412000000
C     1.278000000    -2.245000000    -1.055000000
H     1.090000000    -2.282000000    -2.130000000
H     2.352000000    -2.339000000    -0.882000000
H     0.760000000    -3.139000000    -0.701000000
C    -0.677000000    -0.615000000    -0.972000000
H    -1.168000000    -1.181000000    -1.759000000
C    -1.243000000     0.618000000    -0.504000000
H    -2.163000000     0.978000000    -0.956000000
C    -0.683000000     1.336000000     0.555000000
C    -1.360000000     2.581000000     1.133000000
O    -2.392000000     3.034000000     0.648000000
O    -0.806000000     3.313000000     2.007000000
