17
-87.49729
C    -0.634000000    -1.293000000    -0.375000000
H    -1.212000000    -2.108000000    -0.803000000
C    -0.823000000    -0.129000000    -0.962000000
H    -1.604000000    -0.052000000    -1.715000000
C    -0.065000000     1.036000000    -0.621000000
C    -0.228000000     2.377000000    -1.303000000
H    -0.530000000     3.088000000    -0.531000000
H     0.673000000     2.706000000    -1.825000000
H    -0.983000000     2.392000000    -2.092000000
C     0.823000000     0.963000000     0.408000000
H     1.359000000     1.881000000     0.635000000
C     0.927000000    -0.210000000     1.169000000
H     1.363000000    -0.246000000     2.165000000
C     0.237000000    -1.352000000     0.720000000
C     0.207000000    -2.651000000     1.503000000
O     0.435000000    -2.662000000     2.673000000
O     0.051000000    -3.747000000     0.961000000
