17
-86.14372
C    -0.515000000     1.260000000     0.306000000
H    -0.771000000     2.291000000     0.534000000
C     0.276000000     0.502000000     1.209000000
H     0.610000000     0.907000000     2.161000000
C     0.594000000    -0.713000000     0.833000000
C     1.424000000    -1.557000000     1.645000000
H     1.265000000    -1.595000000     2.724000000
H     1.264000000    -2.584000000     1.310000000
H     2.487000000    -1.350000000     1.502000000
C     0.177000000    -1.201000000    -0.446000000
H     0.395000000    -2.218000000    -0.763000000
C    -0.442000000    -0.369000000    -1.345000000
H    -0.698000000    -0.619000000    -2.371000000
C    -0.732000000     0.899000000    -0.982000000
C    -1.552000000     1.871000000    -1.877000000
O    -1.784000000     1.569000000    -3.017000000
O    -2.001000000     2.899000000    -1.418000000
