17
-87.59746
C    -0.522000000     1.388000000    -0.111000000
H    -0.902000000     2.393000000     0.054000000
C     0.343000000     0.872000000     0.877000000
H     0.592000000     1.521000000     1.712000000
C     0.725000000    -0.481000000     0.923000000
C     1.588000000    -1.042000000     2.058000000
H     2.600000000    -0.639000000     1.981000000
H     1.184000000    -0.722000000     3.021000000
H     1.510000000    -2.129000000     1.985000000
C     0.426000000    -1.249000000    -0.228000000
H     0.678000000    -2.306000000    -0.263000000
C    -0.411000000    -0.697000000    -1.256000000
H    -0.772000000    -1.346000000    -2.050000000
C    -0.866000000     0.644000000    -1.240000000
C    -1.835000000     1.119000000    -2.201000000
O    -2.015000000     0.526000000    -3.258000000
O    -2.330000000     2.154000000    -2.005000000
