17
-92.56485
C    -0.691000000     0.542000000     1.143000000
H    -1.249000000     0.922000000     1.995000000
C    -0.029000000    -0.670000000     1.149000000
H     0.083000000    -1.194000000     2.095000000
C     0.515000000    -1.163000000    -0.035000000
C     1.421000000    -2.372000000    -0.010000000
H     2.091000000    -2.174000000     0.829000000
H     0.816000000    -3.249000000     0.234000000
H     2.113000000    -2.333000000    -0.853000000
C     0.419000000    -0.372000000    -1.155000000
H     0.905000000    -0.795000000    -2.030000000
C    -0.232000000     0.851000000    -1.209000000
H    -0.328000000     1.531000000    -2.052000000
C    -0.926000000     1.255000000    -0.050000000
C    -1.540000000     2.646000000    -0.023000000
O    -1.318000000     3.363000000    -1.017000000
O    -2.045000000     3.219000000     0.991000000
