17
-88.53959
C    -0.855000000     1.147000000     0.336000000
H    -1.620000000     1.748000000     0.820000000
C    -0.245000000     0.255000000     1.237000000
H    -0.424000000     0.262000000     2.309000000
C     0.648000000    -0.714000000     0.784000000
C     1.083000000    -1.820000000     1.683000000
H     0.732000000    -1.603000000     2.694000000
H     0.714000000    -2.811000000     1.410000000
H     2.172000000    -1.772000000     1.752000000
C     0.861000000    -0.780000000    -0.556000000
H     1.505000000    -1.532000000    -1.005000000
C     0.244000000     0.082000000    -1.411000000
H     0.561000000     0.009000000    -2.448000000
C    -0.625000000     1.069000000    -1.017000000
C    -1.444000000     1.851000000    -1.940000000
O    -1.210000000     1.801000000    -3.140000000
O    -2.101000000     2.808000000    -1.515000000
