17
-95.17054
C    -1.136000000     0.843000000     0.402000000
H    -1.932000000     1.441000000     0.839000000
C    -0.521000000    -0.128000000     1.181000000
H    -0.796000000    -0.149000000     2.233000000
C     0.522000000    -0.847000000     0.682000000
C     1.297000000    -1.710000000     1.671000000
H     2.085000000    -1.116000000     2.138000000
H     0.719000000    -2.196000000     2.461000000
H     1.868000000    -2.477000000     1.144000000
C     0.967000000    -0.673000000    -0.610000000
H     1.704000000    -1.364000000    -1.010000000
C     0.282000000     0.173000000    -1.525000000
H     0.626000000     0.305000000    -2.548000000
C    -0.764000000     1.017000000    -0.952000000
C    -1.469000000     2.017000000    -1.797000000
O    -1.293000000     2.003000000    -3.020000000
O    -2.155000000     2.864000000    -1.293000000
