17
-84.66517
C    -1.122000000     0.762000000     0.379000000
H    -1.896000000     1.366000000     0.846000000
C    -0.376000000    -0.125000000     1.134000000
H    -0.615000000    -0.262000000     2.186000000
C     0.650000000    -0.825000000     0.639000000
C     1.399000000    -1.741000000     1.632000000
H     1.994000000    -2.486000000     1.100000000
H     2.148000000    -1.119000000     2.127000000
H     0.688000000    -2.147000000     2.355000000
C     0.840000000    -0.707000000    -0.715000000
H     1.596000000    -1.319000000    -1.199000000
C     0.161000000     0.240000000    -1.489000000
H     0.476000000     0.335000000    -2.525000000
C    -0.886000000     0.947000000    -0.948000000
C    -1.483000000     2.046000000    -1.612000000
O    -1.286000000     2.250000000    -2.833000000
O    -2.285000000     2.789000000    -1.074000000
