17
-88.27394
C    -0.687000000     1.269000000     0.094000000
H    -1.067000000     2.267000000     0.295000000
C    -0.016000000     0.589000000     1.143000000
H     0.112000000     1.136000000     2.074000000
C     0.650000000    -0.598000000     0.923000000
C     1.333000000    -1.277000000     2.046000000
H     1.827000000    -2.146000000     1.607000000
H     2.120000000    -0.592000000     2.368000000
H     0.673000000    -1.547000000     2.873000000
C     0.479000000    -1.212000000    -0.327000000
H     0.929000000    -2.181000000    -0.525000000
C    -0.219000000    -0.583000000    -1.397000000
H    -0.361000000    -1.018000000    -2.383000000
C    -0.835000000     0.687000000    -1.127000000
C    -1.576000000     1.453000000    -2.217000000
O    -1.359000000     1.208000000    -3.431000000
O    -2.010000000     2.546000000    -2.017000000
