17
-89.74755
C    -0.826000000     1.070000000     0.621000000
H    -1.410000000     1.845000000     1.110000000
C    -0.377000000    -0.035000000     1.311000000
H    -0.654000000    -0.207000000     2.348000000
C     0.362000000    -0.976000000     0.585000000
C     0.723000000    -2.261000000     1.253000000
H     1.391000000    -2.189000000     2.114000000
H    -0.192000000    -2.686000000     1.669000000
H     1.011000000    -2.995000000     0.498000000
C     0.803000000    -0.774000000    -0.690000000
H     1.453000000    -1.410000000    -1.284000000
C     0.459000000     0.389000000    -1.311000000
H     0.847000000     0.551000000    -2.313000000
C    -0.376000000     1.314000000    -0.736000000
C    -0.806000000     2.542000000    -1.501000000
O    -0.876000000     2.494000000    -2.741000000
O    -1.533000000     3.334000000    -0.932000000
