17
-91.51745
C    -0.316000000     1.128000000     0.890000000
H    -0.860000000     1.863000000     1.477000000
C    -0.282000000    -0.202000000     1.243000000
H    -0.688000000    -0.452000000     2.220000000
C     0.080000000    -1.180000000     0.305000000
C     0.259000000    -2.595000000     0.799000000
H     0.886000000    -3.248000000     0.188000000
H     0.646000000    -2.578000000     1.820000000
H    -0.690000000    -3.129000000     0.872000000
C     0.401000000    -0.839000000    -1.016000000
H     0.752000000    -1.581000000    -1.728000000
C     0.326000000     0.535000000    -1.358000000
H     0.579000000     0.735000000    -2.396000000
C    -0.084000000     1.500000000    -0.451000000
C    -0.219000000     2.958000000    -0.829000000
O     0.045000000     3.375000000    -1.927000000
O    -0.836000000     3.704000000    -0.105000000
