17
-93.00349
C     0.998000000     0.782000000     0.711000000
H     1.657000000     1.552000000     1.104000000
C     1.168000000     0.308000000    -0.559000000
H     1.990000000     0.677000000    -1.167000000
C     0.175000000    -0.525000000    -1.108000000
C     0.278000000    -0.902000000    -2.501000000
H    -0.420000000    -0.242000000    -3.020000000
H     1.284000000    -0.720000000    -2.886000000
H    -0.007000000    -1.942000000    -2.673000000
C    -0.902000000    -0.982000000    -0.336000000
H    -1.638000000    -1.722000000    -0.638000000
C    -1.107000000    -0.371000000     0.884000000
H    -2.023000000    -0.642000000     1.404000000
C    -0.157000000     0.516000000     1.456000000
C    -0.342000000     1.192000000     2.802000000
O    -1.473000000     1.198000000     3.177000000
O     0.523000000     1.824000000     3.356000000
