17
-87.84534
C     0.764000000     1.130000000     0.561000000
H     1.369000000     1.870000000     1.079000000
C     0.714000000    -0.196000000     1.037000000
H     1.382000000    -0.610000000     1.787000000
C    -0.032000000    -1.174000000     0.353000000
C    -0.111000000    -2.549000000     0.974000000
H    -0.816000000    -2.395000000     1.793000000
H    -0.496000000    -3.391000000     0.394000000
H     0.801000000    -2.786000000     1.525000000
C    -0.643000000    -0.843000000    -0.856000000
H    -1.218000000    -1.600000000    -1.384000000
C    -0.666000000     0.505000000    -1.284000000
H    -1.311000000     0.646000000    -2.147000000
C     0.052000000     1.521000000    -0.561000000
C     0.087000000     2.895000000    -1.004000000
O    -0.613000000     3.293000000    -1.897000000
O     0.733000000     3.677000000    -0.363000000
