17
-97.63514
C     0.016000000     1.302000000     0.735000000
H     0.040000000     2.245000000     1.274000000
C     0.504000000     0.064000000     1.253000000
H     0.939000000     0.020000000     2.248000000
C     0.409000000    -1.080000000     0.415000000
C     0.995000000    -2.408000000     0.905000000
H     1.471000000    -2.261000000     1.877000000
H     0.184000000    -3.139000000     0.923000000
H     1.751000000    -2.822000000     0.235000000
C    -0.123000000    -0.952000000    -0.815000000
H    -0.139000000    -1.801000000    -1.494000000
C    -0.667000000     0.227000000    -1.311000000
H    -1.093000000     0.253000000    -2.311000000
C    -0.583000000     1.359000000    -0.501000000
C    -1.068000000     2.660000000    -1.061000000
O    -2.035000000     2.652000000    -1.783000000
O    -0.604000000     3.678000000    -0.587000000
