17
-86.57989
C     0.423000000     1.371000000     0.083000000
H     0.834000000     2.377000000     0.043000000
C     1.010000000     0.270000000     0.699000000
H     1.973000000     0.384000000     1.191000000
C     0.539000000    -1.025000000     0.485000000
C     1.266000000    -2.074000000     1.174000000
H     1.377000000    -1.781000000     2.220000000
H     0.730000000    -2.976000000     1.473000000
H     2.153000000    -2.432000000     0.646000000
C    -0.621000000    -1.150000000    -0.140000000
H    -1.150000000    -2.094000000    -0.034000000
C    -1.220000000    -0.103000000    -0.907000000
H    -2.098000000    -0.225000000    -1.535000000
C    -0.718000000     1.175000000    -0.703000000
C    -1.382000000     2.413000000    -1.336000000
O    -2.063000000     2.324000000    -2.385000000
O    -1.051000000     3.543000000    -0.973000000
