17
-92.69252
C    -0.500000000     1.092000000     0.888000000
H    -0.895000000     1.816000000     1.595000000
C    -0.389000000    -0.261000000     1.229000000
H    -0.759000000    -0.634000000     2.180000000
C     0.062000000    -1.194000000     0.300000000
C    -0.035000000    -2.624000000     0.603000000
H     0.092000000    -3.301000000    -0.244000000
H     0.781000000    -2.944000000     1.254000000
H    -0.978000000    -2.815000000     1.118000000
C     0.461000000    -0.737000000    -0.955000000
H     0.652000000    -1.558000000    -1.641000000
C     0.446000000     0.564000000    -1.274000000
H     0.816000000     0.885000000    -2.244000000
C     0.050000000     1.529000000    -0.341000000
C     0.009000000     3.021000000    -0.759000000
O     0.698000000     3.295000000    -1.669000000
O    -0.509000000     3.858000000    -0.042000000
