17
-96.81985
C    -0.045000000     1.227000000     0.784000000
H    -0.082000000     2.061000000     1.480000000
C    -0.036000000    -0.090000000     1.303000000
H    -0.220000000    -0.225000000     2.366000000
C     0.065000000    -1.129000000     0.430000000
C    -0.105000000    -2.484000000     1.022000000
H    -0.962000000    -3.040000000     0.637000000
H     0.789000000    -3.089000000     0.859000000
H    -0.178000000    -2.530000000     2.111000000
C     0.116000000    -0.952000000    -0.983000000
H    -0.038000000    -1.833000000    -1.601000000
C     0.164000000     0.362000000    -1.441000000
H     0.159000000     0.582000000    -2.506000000
C     0.116000000     1.461000000    -0.606000000
C     0.129000000     2.871000000    -1.133000000
O     0.403000000     3.041000000    -2.294000000
O    -0.268000000     3.766000000    -0.429000000
