17
-96.59038
C     0.575000000     1.230000000     0.533000000
H     1.151000000     2.052000000     0.951000000
C     0.676000000    -0.005000000     1.139000000
H     1.210000000    -0.163000000     2.072000000
C     0.152000000    -1.144000000     0.527000000
C     0.363000000    -2.471000000     1.085000000
H     1.266000000    -2.603000000     1.685000000
H    -0.494000000    -2.660000000     1.735000000
H     0.363000000    -3.184000000     0.258000000
C    -0.563000000    -0.927000000    -0.687000000
H    -0.753000000    -1.816000000    -1.282000000
C    -0.814000000     0.322000000    -1.264000000
H    -1.455000000     0.382000000    -2.139000000
C    -0.221000000     1.439000000    -0.619000000
C    -0.443000000     2.808000000    -1.161000000
O    -0.602000000     2.943000000    -2.377000000
O    -0.404000000     3.803000000    -0.459000000
