17
-79.51652
C     0.159000000     1.352000000     0.490000000
H     0.381000000     2.348000000     0.866000000
C     0.607000000     0.254000000     1.157000000
H     1.100000000     0.413000000     2.112000000
C     0.459000000    -1.018000000     0.608000000
C     0.902000000    -2.264000000     1.410000000
H     0.016000000    -2.696000000     1.880000000
H     1.250000000    -2.866000000     0.568000000
H     1.617000000    -2.022000000     2.199000000
C    -0.167000000    -1.128000000    -0.699000000
H    -0.416000000    -2.081000000    -1.160000000
C    -0.604000000     0.031000000    -1.346000000
H    -0.905000000    -0.023000000    -2.389000000
C    -0.473000000     1.294000000    -0.749000000
C    -1.076000000     2.484000000    -1.552000000
O    -1.954000000     2.393000000    -2.348000000
O    -0.893000000     3.530000000    -1.051000000
