17
-91.73011
C     1.104000000     0.260000000     0.961000000
H     1.967000000     0.554000000     1.552000000
C     1.239000000     0.278000000    -0.453000000
H     2.179000000     0.667000000    -0.836000000
C     0.185000000    -0.081000000    -1.270000000
C     0.211000000     0.028000000    -2.763000000
H    -0.308000000     0.943000000    -3.057000000
H     1.272000000     0.177000000    -2.973000000
H    -0.330000000    -0.806000000    -3.215000000
C    -1.010000000    -0.379000000    -0.614000000
H    -1.867000000    -0.784000000    -1.147000000
C    -1.144000000    -0.445000000     0.778000000
H    -2.134000000    -0.672000000     1.168000000
C    -0.125000000    -0.078000000     1.576000000
C    -0.367000000     0.084000000     3.043000000
O    -1.447000000    -0.109000000     3.520000000
O     0.579000000     0.357000000     3.738000000
