17
-91.64527
C     0.286000000     1.202000000    -0.799000000
H     0.498000000     1.978000000    -1.530000000
C     0.817000000    -0.054000000    -1.034000000
H     1.490000000    -0.161000000    -1.880000000
C     0.553000000    -1.105000000    -0.162000000
C     1.072000000    -2.454000000    -0.571000000
H     1.929000000    -2.674000000     0.070000000
H     0.306000000    -3.208000000    -0.379000000
H     1.448000000    -2.373000000    -1.593000000
C    -0.363000000    -0.970000000     0.844000000
H    -0.720000000    -1.796000000     1.453000000
C    -0.873000000     0.302000000     1.096000000
H    -1.515000000     0.426000000     1.964000000
C    -0.650000000     1.416000000     0.305000000
C    -1.314000000     2.758000000     0.642000000
O    -2.033000000     2.950000000     1.566000000
O    -0.935000000     3.768000000     0.001000000
