17
-91.08442
C     0.179000000     1.468000000    -0.048000000
H     0.353000000     2.541000000    -0.054000000
C     0.665000000     0.625000000    -0.997000000
H     1.244000000     1.067000000    -1.804000000
C     0.206000000    -0.712000000    -0.962000000
C     0.711000000    -1.753000000    -1.956000000
H    -0.100000000    -2.107000000    -2.596000000
H     1.337000000    -1.189000000    -2.651000000
H     1.296000000    -2.499000000    -1.414000000
C    -0.322000000    -1.241000000     0.171000000
H    -0.552000000    -2.304000000     0.188000000
C    -0.717000000    -0.428000000     1.220000000
H    -1.199000000    -0.917000000     2.062000000
C    -0.445000000     0.918000000     1.132000000
C    -0.796000000     1.929000000     2.256000000
O    -0.998000000     1.484000000     3.378000000
O    -0.867000000     3.123000000     2.080000000
