17
-95.39162
C     0.479000000     1.420000000    -0.241000000
H     0.903000000     2.417000000    -0.319000000
C     1.224000000     0.378000000     0.407000000
H     2.181000000     0.612000000     0.867000000
C     0.661000000    -0.836000000     0.615000000
C     1.322000000    -1.931000000     1.337000000
H     0.888000000    -2.032000000     2.334000000
H     1.124000000    -2.911000000     0.898000000
H     2.396000000    -1.732000000     1.340000000
C    -0.579000000    -1.143000000     0.072000000
H    -0.930000000    -2.172000000     0.094000000
C    -1.233000000    -0.176000000    -0.715000000
H    -2.214000000    -0.456000000    -1.089000000
C    -0.762000000     1.117000000    -0.806000000
C    -1.552000000     2.169000000    -1.515000000
O    -2.763000000     1.948000000    -1.726000000
O    -1.147000000     3.322000000    -1.553000000
