17
-88.26683
C     0.192000000     1.352000000    -0.585000000
H     0.220000000     2.247000000    -1.201000000
C     0.617000000     0.122000000    -1.145000000
H     0.980000000     0.032000000    -2.166000000
C     0.351000000    -1.123000000    -0.510000000
C     1.019000000    -2.377000000    -1.041000000
H     2.059000000    -2.551000000    -0.757000000
H     0.432000000    -3.265000000    -0.800000000
H     0.871000000    -2.264000000    -2.117000000
C    -0.258000000    -1.059000000     0.734000000
H    -0.425000000    -1.977000000     1.292000000
C    -0.773000000     0.149000000     1.249000000
H    -1.237000000     0.282000000     2.222000000
C    -0.519000000     1.399000000     0.671000000
C    -1.004000000     2.671000000     1.304000000
O    -1.880000000     2.698000000     2.122000000
O    -0.647000000     3.672000000     0.730000000
