17
-87.77693
C     0.455000000     1.303000000     0.400000000
H     0.944000000     2.227000000     0.698000000
C     0.882000000     0.145000000     0.895000000
H     1.647000000     0.192000000     1.667000000
C     0.373000000    -1.084000000     0.468000000
C     0.902000000    -2.435000000     1.077000000
H     1.353000000    -3.135000000     0.371000000
H     1.619000000    -2.251000000     1.880000000
H     0.126000000    -3.000000000     1.598000000
C    -0.587000000    -1.004000000    -0.528000000
H    -1.071000000    -1.872000000    -0.967000000
C    -1.096000000     0.226000000    -1.013000000
H    -1.739000000     0.231000000    -1.890000000
C    -0.471000000     1.333000000    -0.570000000
C    -0.977000000     2.663000000    -1.218000000
O    -2.053000000     2.784000000    -1.831000000
O    -0.309000000     3.677000000    -1.038000000
