17
-89.56408
C     0.823000000     0.708000000     0.890000000
H     1.513000000     1.348000000     1.435000000
C     1.152000000     0.231000000    -0.354000000
H     2.108000000     0.477000000    -0.810000000
C     0.272000000    -0.498000000    -1.054000000
C     0.711000000    -0.784000000    -2.492000000
H     0.621000000     0.149000000    -3.052000000
H     1.770000000    -1.052000000    -2.508000000
H     0.126000000    -1.572000000    -2.972000000
C    -1.018000000    -0.667000000    -0.615000000
H    -1.762000000    -1.037000000    -1.316000000
C    -1.305000000    -0.334000000     0.694000000
H    -2.299000000    -0.518000000     1.094000000
C    -0.446000000     0.441000000     1.431000000
C    -0.686000000     0.899000000     2.854000000
O    -1.605000000     0.465000000     3.503000000
O     0.021000000     1.750000000     3.270000000
