17
-92.59136
C     0.596000000     1.279000000     0.407000000
H     1.072000000     2.212000000     0.697000000
C     1.057000000     0.521000000    -0.630000000
H     2.000000000     0.741000000    -1.124000000
C     0.421000000    -0.639000000    -0.944000000
C     0.899000000    -1.490000000    -2.067000000
H     1.978000000    -1.355000000    -2.168000000
H     0.724000000    -2.526000000    -1.768000000
H     0.424000000    -1.231000000    -3.016000000
C    -0.681000000    -1.076000000    -0.200000000
H    -1.170000000    -2.029000000    -0.386000000
C    -1.231000000    -0.263000000     0.768000000
H    -2.055000000    -0.644000000     1.365000000
C    -0.539000000     0.868000000     1.167000000
C    -1.052000000     1.676000000     2.330000000
O    -1.818000000     1.190000000     3.113000000
O    -0.620000000     2.766000000     2.450000000
