17
-96.66539
C     1.077000000     0.987000000     0.138000000
H     1.869000000     1.729000000     0.081000000
C     0.875000000     0.199000000    -0.997000000
H     1.459000000     0.365000000    -1.899000000
C    -0.167000000    -0.723000000    -0.969000000
C    -0.422000000    -1.451000000    -2.245000000
H    -1.442000000    -1.831000000    -2.333000000
H    -0.186000000    -0.811000000    -3.097000000
H     0.288000000    -2.281000000    -2.249000000
C    -1.002000000    -0.857000000     0.082000000
H    -1.856000000    -1.527000000     0.040000000
C    -0.770000000    -0.164000000     1.270000000
H    -1.317000000    -0.320000000     2.197000000
C     0.249000000     0.821000000     1.279000000
C     0.425000000     1.705000000     2.523000000
O    -0.469000000     1.728000000     3.451000000
O     1.389000000     2.433000000     2.724000000
