17
-93.78730
C     0.733000000    -0.913000000     0.924000000
H     1.099000000    -1.640000000     1.644000000
C     0.028000000    -1.282000000    -0.195000000
H    -0.072000000    -2.339000000    -0.427000000
C    -0.507000000    -0.345000000    -1.048000000
C    -1.435000000    -0.839000000    -2.197000000
H    -0.765000000    -1.344000000    -2.897000000
H    -2.225000000    -1.468000000    -1.781000000
H    -2.005000000    -0.023000000    -2.646000000
C    -0.355000000     1.033000000    -0.772000000
H    -0.853000000     1.704000000    -1.467000000
C     0.321000000     1.438000000     0.345000000
H     0.295000000     2.506000000     0.545000000
C     0.906000000     0.476000000     1.256000000
C     1.520000000     0.911000000     2.532000000
O     1.466000000     2.067000000     2.855000000
O     1.856000000     0.051000000     3.329000000
