17
-97.27103
C     1.206000000     0.617000000     0.498000000
H     2.119000000     1.156000000     0.738000000
C     1.067000000    -0.005000000    -0.766000000
H     1.787000000     0.031000000    -1.579000000
C    -0.138000000    -0.619000000    -1.088000000
C    -0.334000000    -1.259000000    -2.442000000
H    -1.071000000    -0.657000000    -2.978000000
H     0.616000000    -1.240000000    -2.979000000
H    -0.805000000    -2.235000000    -2.300000000
C    -1.150000000    -0.532000000    -0.206000000
H    -2.119000000    -0.958000000    -0.456000000
C    -0.995000000     0.033000000     1.088000000
H    -1.802000000     0.158000000     1.805000000
C     0.172000000     0.694000000     1.398000000
C     0.425000000     1.360000000     2.791000000
O    -0.551000000     1.844000000     3.384000000
O     1.578000000     1.608000000     3.089000000
