17
-95.38095
C     0.993000000     0.984000000     0.310000000
H     1.842000000     1.626000000     0.530000000
C     0.858000000     0.408000000    -0.962000000
H     1.532000000     0.686000000    -1.768000000
C    -0.168000000    -0.501000000    -1.150000000
C    -0.311000000    -1.116000000    -2.523000000
H     0.692000000    -1.132000000    -2.953000000
H    -0.730000000    -2.110000000    -2.353000000
H    -0.985000000    -0.540000000    -3.161000000
C    -1.027000000    -0.776000000    -0.059000000
H    -1.902000000    -1.411000000    -0.170000000
C    -0.840000000    -0.269000000     1.196000000
H    -1.577000000    -0.459000000     1.971000000
C     0.270000000     0.572000000     1.430000000
C     0.447000000     1.157000000     2.843000000
O    -0.324000000     0.837000000     3.734000000
O     1.236000000     2.041000000     3.082000000
