17
-92.77192
C    -0.375000000     0.573000000     1.293000000
H    -0.738000000     0.842000000     2.281000000
C    -1.258000000     0.596000000     0.159000000
H    -2.248000000     1.045000000     0.170000000
C    -0.756000000    -0.037000000    -1.026000000
C    -1.534000000    -0.153000000    -2.295000000
H    -2.602000000    -0.174000000    -2.070000000
H    -1.361000000     0.670000000    -2.992000000
H    -1.239000000    -1.066000000    -2.817000000
C     0.499000000    -0.596000000    -0.971000000
H     0.954000000    -1.063000000    -1.840000000
C     1.381000000    -0.421000000     0.110000000
H     2.410000000    -0.768000000     0.059000000
C     0.885000000     0.081000000     1.310000000
C     1.737000000     0.110000000     2.536000000
O     2.946000000    -0.199000000     2.527000000
O     1.303000000     0.556000000     3.560000000
