17
-89.88620
C    -0.178000000    -0.764000000     1.248000000
H    -0.503000000    -1.485000000     1.993000000
C    -0.715000000    -1.054000000    -0.025000000
H    -1.432000000    -1.870000000    -0.063000000
C    -0.567000000    -0.203000000    -1.090000000
C    -1.211000000    -0.485000000    -2.487000000
H    -2.295000000    -0.383000000    -2.405000000
H    -0.762000000     0.151000000    -3.254000000
H    -1.063000000    -1.485000000    -2.899000000
C     0.455000000     0.750000000    -0.963000000
H     0.644000000     1.419000000    -1.800000000
C     1.118000000     1.053000000     0.302000000
H     1.868000000     1.840000000     0.328000000
C     0.704000000     0.332000000     1.437000000
C     1.241000000     0.583000000     2.838000000
O     1.867000000     1.639000000     3.045000000
O     0.831000000    -0.042000000     3.790000000
