17
-94.08227
C    -0.300000000    -0.105000000     1.466000000
H    -0.633000000    -0.089000000     2.501000000
C    -1.049000000    -0.599000000     0.433000000
H    -2.046000000    -0.987000000     0.625000000
C    -0.656000000    -0.565000000    -0.890000000
C    -1.593000000    -0.967000000    -1.938000000
H    -1.378000000    -1.964000000    -2.329000000
H    -2.619000000    -0.856000000    -1.582000000
H    -1.553000000    -0.328000000    -2.822000000
C     0.518000000     0.072000000    -1.220000000
H     0.804000000     0.293000000    -2.246000000
C     1.324000000     0.633000000    -0.206000000
H     2.155000000     1.276000000    -0.484000000
C     0.885000000     0.599000000     1.110000000
C     1.796000000     1.108000000     2.207000000
O     2.930000000     1.423000000     1.993000000
O     1.415000000     1.051000000     3.375000000
