17
-95.60304
C    -0.431000000     1.101000000     1.019000000
H    -0.929000000     1.796000000     1.691000000
C    -1.272000000     0.395000000     0.143000000
H    -2.350000000     0.533000000     0.153000000
C    -0.746000000    -0.525000000    -0.799000000
C    -1.644000000    -1.129000000    -1.877000000
H    -2.149000000    -0.282000000    -2.346000000
H    -0.966000000    -1.586000000    -2.602000000
H    -2.328000000    -1.880000000    -1.478000000
C     0.610000000    -0.761000000    -0.848000000
H     0.928000000    -1.576000000    -1.493000000
C     1.440000000    -0.241000000     0.112000000
H     2.495000000    -0.494000000     0.043000000
C     0.966000000     0.771000000     1.008000000
C     1.860000000     1.192000000     2.139000000
O     3.078000000     1.104000000     1.919000000
O     1.444000000     1.583000000     3.214000000
