17
-95.86983
C    -0.512000000    -0.752000000     1.174000000
H    -0.826000000    -1.354000000     2.022000000
C    -0.728000000    -1.144000000    -0.115000000
H    -1.283000000    -2.075000000    -0.199000000
C    -0.304000000    -0.285000000    -1.214000000
C    -0.573000000    -0.590000000    -2.649000000
H    -0.397000000    -1.657000000    -2.803000000
H    -1.615000000    -0.305000000    -2.813000000
H     0.138000000    -0.062000000    -3.287000000
C     0.534000000     0.793000000    -0.914000000
H     1.115000000     1.429000000    -1.578000000
C     0.759000000     1.121000000     0.474000000
H     1.395000000     1.979000000     0.672000000
C     0.275000000     0.352000000     1.467000000
C     0.591000000     0.773000000     2.865000000
O     1.098000000     1.845000000     3.137000000
O     0.326000000    -0.066000000     3.764000000
