17
-97.01956
C     0.033000000     0.391000000     1.374000000
H    -0.143000000     0.692000000     2.403000000
C    -1.108000000    -0.070000000     0.738000000
H    -2.040000000    -0.132000000     1.294000000
C    -0.999000000    -0.490000000    -0.546000000
C    -2.223000000    -1.021000000    -1.300000000
H    -2.624000000    -0.272000000    -1.986000000
H    -1.805000000    -1.748000000    -2.000000000
H    -2.946000000    -1.463000000    -0.610000000
C     0.196000000    -0.289000000    -1.216000000
H     0.336000000    -0.689000000    -2.216000000
C     1.319000000     0.219000000    -0.564000000
H     2.281000000     0.317000000    -1.062000000
C     1.259000000     0.578000000     0.778000000
C     2.501000000     1.203000000     1.439000000
O     3.550000000     1.104000000     0.872000000
O     2.420000000     1.664000000     2.610000000
