17
-97.16905
C     0.041000000    -0.920000000     1.098000000
H    -0.095000000    -1.654000000     1.888000000
C    -0.666000000    -1.104000000    -0.065000000
H    -1.239000000    -2.027000000    -0.091000000
C    -0.565000000    -0.180000000    -1.109000000
C    -1.280000000    -0.555000000    -2.334000000
H    -0.836000000    -1.517000000    -2.597000000
H    -2.306000000    -0.723000000    -2.000000000
H    -1.125000000     0.172000000    -3.133000000
C     0.203000000     0.989000000    -0.948000000
H     0.147000000     1.776000000    -1.696000000
C     0.875000000     1.268000000     0.296000000
H     1.446000000     2.178000000     0.461000000
C     0.816000000     0.261000000     1.308000000
C     1.420000000     0.588000000     2.631000000
O     2.005000000     1.647000000     2.739000000
O     1.164000000    -0.198000000     3.559000000
