17
-93.16891
C     1.109000000    -0.705000000     0.712000000
H     1.908000000    -1.370000000     1.030000000
C    -0.081000000    -1.224000000     0.426000000
H    -0.247000000    -2.277000000     0.636000000
C    -1.091000000    -0.501000000    -0.154000000
C    -2.427000000    -1.129000000    -0.521000000
H    -2.984000000    -0.441000000    -1.160000000
H    -2.246000000    -2.079000000    -1.030000000
H    -3.035000000    -1.225000000     0.381000000
C    -0.894000000     0.823000000    -0.428000000
H    -1.673000000     1.463000000    -0.836000000
C     0.327000000     1.406000000    -0.131000000
H     0.500000000     2.396000000    -0.546000000
C     1.385000000     0.638000000     0.389000000
C     2.747000000     1.271000000     0.473000000
O     2.994000000     2.447000000     0.179000000
O     3.716000000     0.514000000     0.586000000
