17
-86.51242
C     0.664000000     1.256000000    -0.453000000
H     1.383000000     1.965000000    -0.856000000
C     0.137000000     0.242000000    -1.277000000
H     0.205000000     0.374000000    -2.353000000
C    -0.519000000    -0.871000000    -0.714000000
C    -1.038000000    -1.992000000    -1.534000000
H    -2.062000000    -2.277000000    -1.286000000
H    -1.119000000    -1.764000000    -2.599000000
H    -0.449000000    -2.909000000    -1.586000000
C    -0.571000000    -1.008000000     0.655000000
H    -0.955000000    -1.954000000     1.028000000
C    -0.119000000     0.001000000     1.494000000
H     0.174000000    -0.190000000     2.523000000
C     0.463000000     1.193000000     0.935000000
C     1.030000000     2.352000000     1.786000000
O     0.695000000     2.657000000     2.870000000
O     2.080000000     2.918000000     1.359000000
