17
-95.13870
C     1.201000000    -0.631000000     0.643000000
H     1.933000000    -1.249000000     1.156000000
C    -0.141000000    -0.625000000     1.114000000
H    -0.341000000    -1.160000000     2.038000000
C    -1.163000000    -0.007000000     0.445000000
C    -2.541000000    -0.067000000     0.961000000
H    -3.154000000     0.816000000     0.769000000
H    -2.986000000    -1.013000000     0.644000000
H    -2.490000000    -0.113000000     2.051000000
C    -0.884000000     0.652000000    -0.742000000
H    -1.619000000     1.270000000    -1.252000000
C     0.413000000     0.769000000    -1.253000000
H     0.545000000     1.346000000    -2.164000000
C     1.481000000     0.094000000    -0.549000000
C     2.845000000    -0.015000000    -1.144000000
O     3.260000000     0.736000000    -2.038000000
O     3.638000000    -0.808000000    -0.675000000
