17
-91.06704
C     1.157000000    -0.977000000    -0.022000000
H     1.910000000    -1.761000000    -0.008000000
C    -0.048000000    -1.200000000     0.619000000
H    -0.233000000    -2.036000000     1.288000000
C    -1.035000000    -0.213000000     0.657000000
C    -2.294000000    -0.219000000     1.507000000
H    -2.871000000    -1.075000000     1.149000000
H    -2.030000000    -0.521000000     2.523000000
H    -2.806000000     0.738000000     1.625000000
C    -0.882000000     0.963000000    -0.177000000
H    -1.677000000     1.704000000    -0.210000000
C     0.271000000     1.105000000    -0.962000000
H     0.359000000     1.968000000    -1.617000000
C     1.336000000     0.202000000    -0.857000000
C     2.644000000     0.401000000    -1.569000000
O     3.172000000     1.498000000    -1.814000000
O     3.026000000    -0.583000000    -2.126000000
