17
-94.73488
C     1.027000000    -0.721000000     0.854000000
H     1.755000000    -1.159000000     1.531000000
C    -0.327000000    -0.479000000     1.224000000
H    -0.626000000    -0.642000000     2.256000000
C    -1.178000000     0.213000000     0.351000000
C    -2.608000000     0.474000000     0.693000000
H    -2.941000000    -0.474000000     1.120000000
H    -2.601000000     1.186000000     1.521000000
H    -3.201000000     0.923000000    -0.107000000
C    -0.735000000     0.546000000    -0.946000000
H    -1.426000000     0.945000000    -1.684000000
C     0.571000000     0.271000000    -1.283000000
H     0.838000000     0.457000000    -2.320000000
C     1.479000000    -0.357000000    -0.411000000
C     2.963000000    -0.356000000    -0.804000000
O     3.312000000     0.293000000    -1.748000000
O     3.701000000    -1.115000000    -0.247000000
