17
-95.76854
C    -1.109000000    -0.775000000    -0.509000000
H    -1.844000000    -1.262000000    -1.145000000
C    -0.707000000     0.495000000    -0.965000000
H    -1.094000000     0.947000000    -1.875000000
C     0.294000000     1.144000000    -0.325000000
C     0.795000000     2.523000000    -0.870000000
H     0.341000000     3.348000000    -0.317000000
H     1.870000000     2.486000000    -0.682000000
H     0.603000000     2.750000000    -1.921000000
C     0.958000000     0.482000000     0.710000000
H     1.802000000     0.906000000     1.249000000
C     0.552000000    -0.779000000     1.191000000
H     1.084000000    -1.303000000     1.982000000
C    -0.516000000    -1.383000000     0.564000000
C    -0.969000000    -2.780000000     0.920000000
O    -0.179000000    -3.461000000     1.647000000
O    -1.887000000    -3.344000000     0.344000000
