17
-96.73462
C     0.242000000     1.288000000     0.646000000
H     0.300000000     2.263000000     1.122000000
C    -0.775000000     1.016000000    -0.278000000
H    -1.554000000     1.725000000    -0.547000000
C    -0.889000000    -0.274000000    -0.823000000
C    -1.940000000    -0.540000000    -1.862000000
H    -1.750000000    -1.457000000    -2.424000000
H    -2.871000000    -0.694000000    -1.313000000
H    -2.048000000     0.323000000    -2.522000000
C     0.013000000    -1.292000000    -0.463000000
H    -0.163000000    -2.320000000    -0.769000000
C     1.029000000    -0.971000000     0.465000000
H     1.714000000    -1.796000000     0.644000000
C     1.160000000     0.289000000     1.077000000
C     2.249000000     0.721000000     2.045000000
O     2.874000000    -0.145000000     2.610000000
O     2.410000000     1.870000000     2.386000000
