17
-99.71056
C     0.697000000    -0.091000000     1.332000000
H     1.150000000    -0.071000000     2.320000000
C    -0.696000000     0.163000000     1.099000000
H    -1.266000000     0.432000000     1.985000000
C    -1.240000000     0.242000000    -0.130000000
C    -2.614000000     0.793000000    -0.389000000
H    -2.839000000     1.475000000     0.434000000
H    -2.663000000     1.297000000    -1.356000000
H    -3.348000000    -0.016000000    -0.403000000
C    -0.408000000    -0.071000000    -1.218000000
H    -0.830000000    -0.022000000    -2.219000000
C     0.930000000    -0.455000000    -1.016000000
H     1.489000000    -0.624000000    -1.932000000
C     1.493000000    -0.461000000     0.242000000
C     2.974000000    -0.822000000     0.365000000
O     3.659000000    -1.189000000    -0.580000000
O     3.507000000    -0.588000000     1.469000000
