17
-96.33797
C     1.244000000     0.865000000    -0.118000000
H     2.085000000     1.554000000    -0.104000000
C    -0.056000000     1.328000000    -0.129000000
H    -0.233000000     2.397000000    -0.040000000
C    -1.148000000     0.442000000    -0.018000000
C    -2.575000000     0.903000000     0.050000000
H    -3.216000000     0.303000000     0.698000000
H    -2.595000000     1.949000000     0.362000000
H    -3.142000000     0.928000000    -0.883000000
C    -0.886000000    -0.964000000    -0.052000000
H    -1.726000000    -1.653000000    -0.102000000
C     0.434000000    -1.428000000     0.022000000
H     0.544000000    -2.507000000     0.089000000
C     1.477000000    -0.566000000    -0.144000000
C     2.880000000    -1.060000000     0.009000000
O     3.074000000    -2.226000000     0.289000000
O     3.833000000    -0.266000000     0.069000000
