17
-88.09654
C    -0.089000000     1.205000000     0.751000000
H    -0.350000000     2.124000000     1.269000000
C    -0.560000000     1.095000000    -0.549000000
H    -1.030000000     1.964000000    -1.001000000
C    -0.356000000    -0.166000000    -1.153000000
C    -0.964000000    -0.427000000    -2.527000000
H    -1.377000000    -1.432000000    -2.644000000
H    -1.846000000     0.213000000    -2.599000000
H    -0.291000000    -0.246000000    -3.368000000
C     0.332000000    -1.145000000    -0.495000000
H     0.305000000    -2.177000000    -0.835000000
C     0.803000000    -0.989000000     0.818000000
H     1.341000000    -1.842000000     1.225000000
C     0.546000000     0.230000000     1.489000000
C     0.993000000     0.456000000     2.818000000
O     1.468000000    -0.453000000     3.448000000
O     1.072000000     1.588000000     3.347000000
