17
-100.30165
C     1.213000000     0.837000000     0.051000000
H     2.196000000     1.284000000     0.176000000
C     1.097000000    -0.299000000    -0.724000000
H     1.947000000    -0.735000000    -1.243000000
C    -0.103000000    -1.082000000    -0.604000000
C    -0.250000000    -2.276000000    -1.521000000
H    -0.988000000    -2.996000000    -1.159000000
H    -0.606000000    -1.843000000    -2.458000000
H     0.639000000    -2.898000000    -1.638000000
C    -1.137000000    -0.629000000     0.227000000
H    -2.044000000    -1.204000000     0.396000000
C    -0.986000000     0.545000000     0.940000000
H    -1.801000000     0.912000000     1.559000000
C     0.162000000     1.318000000     0.799000000
C     0.222000000     2.644000000     1.604000000
O    -0.770000000     3.023000000     2.203000000
O     1.203000000     3.391000000     1.389000000
