17
-91.25963
C     1.089000000     0.811000000     0.523000000
H     2.038000000     1.198000000     0.886000000
C     1.235000000    -0.384000000    -0.229000000
H     2.206000000    -0.673000000    -0.624000000
C     0.092000000    -0.995000000    -0.736000000
C     0.272000000    -2.330000000    -1.449000000
H     1.086000000    -2.479000000    -2.162000000
H     0.404000000    -3.045000000    -0.634000000
H    -0.667000000    -2.583000000    -1.947000000
C    -1.208000000    -0.536000000    -0.354000000
H    -2.141000000    -1.026000000    -0.620000000
C    -1.254000000     0.639000000     0.425000000
H    -2.218000000     1.140000000     0.476000000
C    -0.110000000     1.343000000     0.859000000
C    -0.261000000     2.618000000     1.624000000
O    -1.224000000     2.809000000     2.295000000
O     0.663000000     3.492000000     1.660000000
