17
-95.30591
C     0.875000000    -0.133000000    -1.168000000
H     1.490000000    -0.084000000    -2.063000000
C    -0.004000000     0.882000000    -0.885000000
H    -0.191000000     1.647000000    -1.634000000
C    -0.816000000     0.877000000     0.208000000
C    -1.698000000     2.096000000     0.397000000
H    -1.546000000     2.720000000    -0.487000000
H    -2.762000000     1.848000000     0.421000000
H    -1.476000000     2.608000000     1.336000000
C    -0.762000000    -0.176000000     1.144000000
H    -1.436000000    -0.241000000     1.995000000
C     0.221000000    -1.177000000     0.897000000
H     0.250000000    -2.031000000     1.569000000
C     1.020000000    -1.196000000    -0.236000000
C     1.972000000    -2.274000000    -0.471000000
O     2.174000000    -3.069000000     0.428000000
O     2.692000000    -2.301000000    -1.458000000
