17
-99.21922
C     1.005000000     0.220000000    -1.050000000
H     1.664000000     0.492000000    -1.871000000
C    -0.182000000     0.881000000    -0.911000000
H    -0.422000000     1.602000000    -1.687000000
C    -1.088000000     0.629000000     0.143000000
C    -2.403000000     1.299000000     0.211000000
H    -2.637000000     1.816000000    -0.723000000
H    -3.204000000     0.557000000     0.215000000
H    -2.444000000     1.867000000     1.143000000
C    -0.740000000    -0.337000000     1.101000000
H    -1.383000000    -0.495000000     1.963000000
C     0.525000000    -1.029000000     0.918000000
H     0.799000000    -1.783000000     1.651000000
C     1.363000000    -0.775000000    -0.158000000
C     2.721000000    -1.424000000    -0.270000000
O     2.883000000    -2.518000000     0.343000000
O     3.549000000    -0.996000000    -1.025000000
