17
-96.40939
C     0.883000000    -0.796000000    -0.887000000
H     1.476000000    -1.286000000    -1.656000000
C    -0.427000000    -0.432000000    -1.208000000
H    -0.781000000    -0.806000000    -2.165000000
C    -1.172000000     0.291000000    -0.288000000
C    -2.615000000     0.599000000    -0.486000000
H    -3.320000000    -0.175000000    -0.178000000
H    -2.828000000     1.576000000    -0.047000000
H    -2.692000000     0.802000000    -1.557000000
C    -0.655000000     0.588000000     0.965000000
H    -1.216000000     1.245000000     1.626000000
C     0.659000000     0.240000000     1.253000000
H     1.075000000     0.603000000     2.189000000
C     1.465000000    -0.474000000     0.317000000
C     2.955000000    -0.639000000     0.622000000
O     3.484000000    -0.080000000     1.611000000
O     3.704000000    -1.256000000    -0.117000000
