17
-93.91309
C     1.291000000     0.448000000     0.613000000
H     2.298000000     0.682000000     0.948000000
C     1.116000000    -0.637000000    -0.254000000
H     1.940000000    -1.236000000    -0.633000000
C    -0.152000000    -0.937000000    -0.785000000
C    -0.243000000    -2.022000000    -1.723000000
H    -1.302000000    -2.233000000    -1.883000000
H     0.306000000    -1.874000000    -2.655000000
H     0.155000000    -2.979000000    -1.381000000
C    -1.241000000    -0.150000000    -0.428000000
H    -2.229000000    -0.421000000    -0.793000000
C    -1.062000000     0.969000000     0.357000000
H    -1.958000000     1.514000000     0.644000000
C     0.173000000     1.239000000     0.969000000
C     0.260000000     2.291000000     1.997000000
O    -0.715000000     2.754000000     2.523000000
O     1.361000000     2.593000000     2.477000000
