17
-91.91685
C    -0.002000000    -0.554000000    -1.376000000
H    -0.158000000    -1.021000000    -2.345000000
C    -1.091000000    -0.026000000    -0.687000000
H    -2.041000000    -0.075000000    -1.213000000
C    -0.941000000     0.616000000     0.555000000
C    -2.124000000     1.257000000     1.253000000
H    -1.778000000     2.226000000     1.620000000
H    -2.990000000     1.402000000     0.603000000
H    -2.459000000     0.602000000     2.060000000
C     0.266000000     0.411000000     1.266000000
H     0.346000000     0.780000000     2.286000000
C     1.355000000    -0.204000000     0.614000000
H     2.283000000    -0.338000000     1.164000000
C     1.244000000    -0.640000000    -0.747000000
C     2.370000000    -1.247000000    -1.482000000
O     3.533000000    -1.385000000    -1.047000000
O     2.193000000    -1.799000000    -2.530000000
