17
-82.94482
C    -0.218000000    -0.545000000    -1.332000000
H    -0.592000000    -1.027000000    -2.232000000
C    -1.116000000     0.280000000    -0.641000000
H    -2.074000000     0.537000000    -1.085000000
C    -0.736000000     0.779000000     0.590000000
C    -1.701000000     1.530000000     1.485000000
H    -1.797000000     1.127000000     2.495000000
H    -1.566000000     2.614000000     1.468000000
H    -2.696000000     1.506000000     1.036000000
C     0.533000000     0.611000000     1.043000000
H     0.827000000     1.062000000     1.987000000
C     1.406000000    -0.352000000     0.350000000
H     2.359000000    -0.561000000     0.828000000
C     1.074000000    -0.882000000    -0.835000000
C     1.922000000    -1.883000000    -1.566000000
O     2.761000000    -2.510000000    -0.969000000
O     1.608000000    -2.282000000    -2.624000000
