17
-91.13148
C    -0.130000000    -0.688000000    -1.290000000
H    -0.437000000    -1.098000000    -2.249000000
C    -1.101000000    -0.098000000    -0.572000000
H    -2.054000000    -0.006000000    -1.088000000
C    -0.937000000     0.445000000     0.688000000
C    -2.007000000     1.271000000     1.248000000
H    -1.733000000     2.321000000     1.376000000
H    -2.837000000     1.231000000     0.539000000
H    -2.320000000     0.901000000     2.227000000
C     0.364000000     0.453000000     1.193000000
H     0.581000000     1.003000000     2.105000000
C     1.428000000    -0.134000000     0.519000000
H     2.435000000    -0.156000000     0.929000000
C     1.139000000    -0.678000000    -0.735000000
C     2.254000000    -1.375000000    -1.445000000
O     3.321000000    -1.493000000    -0.919000000
O     2.034000000    -1.902000000    -2.521000000
