17
-92.70365
C    -1.070000000     0.958000000    -0.427000000
H    -1.778000000     1.769000000    -0.576000000
C    -1.007000000     0.360000000     0.803000000
H    -1.758000000     0.473000000     1.581000000
C    -0.012000000    -0.570000000     1.099000000
C     0.289000000    -1.064000000     2.492000000
H     0.395000000    -2.146000000     2.597000000
H     1.251000000    -0.649000000     2.800000000
H    -0.535000000    -0.787000000     3.153000000
C     0.994000000    -0.885000000     0.138000000
H     1.793000000    -1.595000000     0.339000000
C     0.852000000    -0.305000000    -1.084000000
H     1.476000000    -0.585000000    -1.929000000
C    -0.151000000     0.670000000    -1.446000000
C    -0.227000000     1.290000000    -2.822000000
O     0.763000000     1.364000000    -3.483000000
O    -1.276000000     1.709000000    -3.232000000
