17
-93.94549
C    -0.109000000    -0.479000000    -1.421000000
H    -0.095000000    -0.813000000    -2.456000000
C    -0.447000000    -1.191000000    -0.313000000
H    -0.850000000    -2.197000000    -0.396000000
C    -0.138000000    -0.737000000     1.027000000
C    -0.543000000    -1.570000000     2.186000000
H     0.137000000    -2.325000000     2.586000000
H    -0.902000000    -0.920000000     2.987000000
H    -1.388000000    -2.212000000     1.929000000
C     0.275000000     0.594000000     1.173000000
H     0.396000000     1.096000000     2.129000000
C     0.461000000     1.405000000     0.022000000
H     0.798000000     2.437000000     0.082000000
C     0.266000000     0.904000000    -1.288000000
C     0.681000000     1.783000000    -2.456000000
O     1.023000000     2.898000000    -2.234000000
O     0.440000000     1.329000000    -3.558000000
