17
-90.23310
C     0.757000000     0.143000000    -1.247000000
H     1.159000000    -0.023000000    -2.244000000
C     0.653000000    -1.021000000    -0.456000000
H     0.996000000    -1.973000000    -0.854000000
C    -0.020000000    -0.990000000     0.745000000
C    -0.256000000    -2.248000000     1.568000000
H     0.456000000    -2.963000000     1.150000000
H     0.054000000    -1.998000000     2.585000000
H    -1.310000000    -2.524000000     1.495000000
C    -0.660000000     0.149000000     1.081000000
H    -1.213000000     0.152000000     2.017000000
C    -0.491000000     1.294000000     0.316000000
H    -0.922000000     2.234000000     0.651000000
C     0.115000000     1.282000000    -0.928000000
C     0.198000000     2.509000000    -1.776000000
O    -0.578000000     3.374000000    -1.488000000
O     1.062000000     2.608000000    -2.611000000
