17
-96.00598
C    -0.048000000    -0.391000000    -1.385000000
H    -0.057000000    -0.813000000    -2.387000000
C     0.113000000    -1.282000000    -0.324000000
H     0.138000000    -2.359000000    -0.471000000
C     0.064000000    -0.775000000     0.979000000
C     0.203000000    -1.692000000     2.143000000
H    -0.637000000    -1.528000000     2.821000000
H     0.032000000    -2.699000000     1.758000000
H     1.113000000    -1.643000000     2.744000000
C    -0.148000000     0.632000000     1.206000000
H    -0.242000000     1.072000000     2.195000000
C    -0.059000000     1.509000000     0.094000000
H    -0.151000000     2.587000000     0.199000000
C     0.041000000     0.989000000    -1.248000000
C    -0.147000000     1.896000000    -2.448000000
O    -0.135000000     3.112000000    -2.324000000
O    -0.075000000     1.379000000    -3.552000000
