17
-92.23375
C     0.397000000    -0.559000000    -1.301000000
H     0.653000000    -1.027000000    -2.248000000
C     0.881000000    -0.986000000    -0.052000000
H     1.443000000    -1.916000000    -0.024000000
C     0.490000000    -0.357000000     1.136000000
C     0.611000000    -1.114000000     2.451000000
H    -0.318000000    -1.621000000     2.719000000
H     1.430000000    -1.823000000     2.314000000
H     0.949000000    -0.460000000     3.257000000
C    -0.170000000     0.847000000     0.954000000
H    -0.466000000     1.319000000     1.887000000
C    -0.567000000     1.331000000    -0.275000000
H    -1.131000000     2.257000000    -0.364000000
C    -0.413000000     0.559000000    -1.385000000
C    -1.130000000     1.023000000    -2.678000000
O    -1.442000000     2.211000000    -2.769000000
O    -1.224000000     0.313000000    -3.624000000
