17
-88.12552
C    -0.193000000    -0.599000000    -1.360000000
H    -0.262000000    -1.212000000    -2.255000000
C    -0.383000000    -1.238000000    -0.115000000
H    -0.532000000    -2.312000000    -0.029000000
C    -0.215000000    -0.518000000     1.083000000
C    -0.258000000    -1.253000000     2.407000000
H     0.335000000    -2.168000000     2.352000000
H     0.006000000    -0.577000000     3.223000000
H    -1.295000000    -1.534000000     2.605000000
C     0.318000000     0.760000000     1.070000000
H     0.520000000     1.214000000     2.037000000
C     0.443000000     1.394000000    -0.178000000
H     0.747000000     2.437000000    -0.139000000
C     0.195000000     0.736000000    -1.424000000
C     0.265000000     1.443000000    -2.716000000
O     0.508000000     2.593000000    -2.889000000
O    -0.206000000     0.842000000    -3.667000000
