17
-93.84470
C    -0.470000000    -0.551000000    -1.275000000
H    -0.590000000    -0.929000000    -2.287000000
C     0.701000000    -0.926000000    -0.595000000
H     1.299000000    -1.739000000    -1.000000000
C     1.026000000    -0.372000000     0.652000000
C     2.122000000    -0.858000000     1.468000000
H     2.387000000    -0.204000000     2.301000000
H     1.900000000    -1.884000000     1.767000000
H     3.052000000    -0.886000000     0.895000000
C     0.136000000     0.560000000     1.161000000
H     0.249000000     1.059000000     2.120000000
C    -0.978000000     0.995000000     0.482000000
H    -1.514000000     1.833000000     0.920000000
C    -1.284000000     0.455000000    -0.788000000
C    -2.420000000     0.970000000    -1.657000000
O    -2.955000000     2.023000000    -1.422000000
O    -2.669000000     0.450000000    -2.740000000
