17
-96.76151
C    -0.220000000    -0.876000000    -1.240000000
H    -0.433000000    -1.639000000    -1.984000000
C     0.436000000    -1.327000000    -0.063000000
H     0.836000000    -2.330000000     0.063000000
C     0.566000000    -0.399000000     0.964000000
C     1.144000000    -0.829000000     2.276000000
H     2.230000000    -0.920000000     2.204000000
H     0.929000000    -0.112000000     3.071000000
H     0.771000000    -1.812000000     2.571000000
C     0.068000000     0.944000000     0.912000000
H     0.059000000     1.603000000     1.776000000
C    -0.535000000     1.331000000    -0.259000000
H    -0.831000000     2.377000000    -0.237000000
C    -0.675000000     0.470000000    -1.317000000
C    -1.302000000     1.034000000    -2.553000000
O    -1.558000000     2.206000000    -2.654000000
O    -1.482000000     0.279000000    -3.522000000
