17
-92.94922
C     0.551000000    -0.286000000    -1.383000000
H     1.003000000    -0.528000000    -2.341000000
C     0.711000000    -1.055000000    -0.246000000
H     1.332000000    -1.947000000    -0.237000000
C     0.105000000    -0.758000000     0.948000000
C     0.391000000    -1.609000000     2.164000000
H    -0.286000000    -2.453000000     2.310000000
H     1.394000000    -2.028000000     2.065000000
H     0.290000000    -0.948000000     3.027000000
C    -0.596000000     0.426000000     1.052000000
H    -1.013000000     0.626000000     2.035000000
C    -0.794000000     1.271000000    -0.020000000
H    -1.513000000     2.086000000    -0.018000000
C    -0.236000000     0.924000000    -1.263000000
C    -0.371000000     1.840000000    -2.364000000
O    -0.817000000     2.971000000    -2.210000000
O    -0.158000000     1.476000000    -3.519000000
