17
-97.35787
C    -0.396000000    -0.425000000    -1.371000000
H    -0.740000000    -0.861000000    -2.305000000
C     0.427000000    -1.141000000    -0.468000000
H     0.853000000    -2.090000000    -0.786000000
C     0.759000000    -0.602000000     0.733000000
C     1.621000000    -1.442000000     1.618000000
H     2.599000000    -0.958000000     1.643000000
H     1.260000000    -1.359000000     2.645000000
H     1.641000000    -2.493000000     1.321000000
C     0.296000000     0.635000000     1.085000000
H     0.595000000     1.048000000     2.045000000
C    -0.541000000     1.365000000     0.261000000
H    -0.779000000     2.391000000     0.529000000
C    -0.906000000     0.846000000    -0.988000000
C    -1.915000000     1.546000000    -1.817000000
O    -2.303000000     2.632000000    -1.453000000
O    -2.463000000     0.903000000    -2.694000000
