17
-96.01085
C    -0.330000000    -0.235000000    -1.415000000
H    -0.398000000    -0.402000000    -2.487000000
C     0.595000000    -0.973000000    -0.642000000
H     1.283000000    -1.686000000    -1.089000000
C     0.739000000    -0.708000000     0.703000000
C     1.813000000    -1.425000000     1.536000000
H     2.468000000    -2.009000000     0.887000000
H     2.462000000    -0.723000000     2.065000000
H     1.405000000    -2.123000000     2.270000000
C    -0.145000000     0.272000000     1.317000000
H     0.138000000     0.556000000     2.328000000
C    -0.932000000     1.107000000     0.506000000
H    -1.465000000     1.943000000     0.952000000
C    -1.091000000     0.780000000    -0.872000000
C    -2.001000000     1.618000000    -1.763000000
O    -2.691000000     2.492000000    -1.318000000
O    -1.850000000     1.522000000    -2.978000000
