17
-92.05800
C     1.025000000    -0.613000000     0.728000000
H     1.755000000    -1.274000000     1.187000000
C     0.284000000    -1.224000000    -0.280000000
H     0.484000000    -2.258000000    -0.548000000
C    -0.723000000    -0.515000000    -0.896000000
C    -1.436000000    -1.211000000    -1.980000000
H    -1.683000000    -2.221000000    -1.646000000
H    -2.423000000    -0.757000000    -2.095000000
H    -0.841000000    -1.182000000    -2.895000000
C    -0.994000000     0.848000000    -0.537000000
H    -1.776000000     1.426000000    -1.022000000
C    -0.134000000     1.439000000     0.430000000
H    -0.185000000     2.491000000     0.698000000
C     0.852000000     0.714000000     1.103000000
C     1.717000000     1.295000000     2.233000000
O     1.318000000     2.232000000     2.873000000
O     2.762000000     0.808000000     2.642000000
