17
-87.39494
C     0.042000000     0.412000000    -1.425000000
H     0.209000000     0.684000000    -2.464000000
C     0.688000000    -0.720000000    -0.858000000
H     1.135000000    -1.446000000    -1.533000000
C     0.704000000    -0.833000000     0.519000000
C     1.512000000    -1.936000000     1.132000000
H     2.581000000    -1.719000000     1.176000000
H     1.090000000    -2.155000000     2.115000000
H     1.626000000    -2.868000000     0.575000000
C    -0.100000000    -0.015000000     1.314000000
H    -0.271000000    -0.185000000     2.374000000
C    -0.916000000     0.985000000     0.767000000
H    -1.634000000     1.469000000     1.423000000
C    -0.822000000     1.165000000    -0.620000000
C    -1.629000000     2.249000000    -1.271000000
O    -2.686000000     2.601000000    -0.754000000
O    -1.526000000     2.311000000    -2.476000000
