17
-94.64615
C    -1.267000000     0.452000000    -0.630000000
H    -2.252000000     0.455000000    -1.088000000
C    -0.583000000    -0.796000000    -0.830000000
H    -1.054000000    -1.535000000    -1.472000000
C     0.605000000    -1.103000000    -0.191000000
C     1.285000000    -2.389000000    -0.362000000
H     1.130000000    -3.053000000     0.491000000
H     0.913000000    -2.872000000    -1.268000000
H     2.359000000    -2.235000000    -0.483000000
C     1.168000000    -0.068000000     0.557000000
H     2.131000000    -0.215000000     1.040000000
C     0.478000000     1.122000000     0.871000000
H     0.902000000     1.857000000     1.550000000
C    -0.748000000     1.380000000     0.252000000
C    -1.472000000     2.644000000     0.505000000
O    -1.003000000     3.585000000     1.069000000
O    -2.588000000     2.773000000    -0.011000000
