17
-89.13846
C    -0.253000000     0.649000000    -1.282000000
H    -0.561000000     1.125000000    -2.209000000
C     0.104000000    -0.664000000    -1.098000000
H     0.322000000    -1.277000000    -1.969000000
C     0.312000000    -1.156000000     0.152000000
C     0.646000000    -2.664000000     0.335000000
H     0.713000000    -3.001000000     1.371000000
H    -0.096000000    -3.166000000    -0.290000000
H     1.608000000    -2.901000000    -0.124000000
C     0.445000000    -0.273000000     1.247000000
H     0.773000000    -0.662000000     2.208000000
C    -0.086000000     1.004000000     1.105000000
H    -0.178000000     1.650000000     1.975000000
C    -0.533000000     1.433000000    -0.140000000
C    -0.979000000     2.880000000    -0.384000000
O    -1.486000000     3.537000000     0.512000000
O    -0.744000000     3.491000000    -1.409000000
