17
-93.63216
C    -0.503000000     0.786000000    -1.151000000
H    -0.758000000     1.221000000    -2.113000000
C    -0.710000000    -0.595000000    -0.886000000
H    -1.148000000    -1.226000000    -1.655000000
C    -0.250000000    -1.211000000     0.271000000
C    -0.260000000    -2.767000000     0.386000000
H     0.736000000    -3.140000000     0.633000000
H    -1.066000000    -3.047000000     1.068000000
H    -0.433000000    -3.057000000    -0.652000000
C     0.290000000    -0.436000000     1.228000000
H     0.642000000    -0.752000000     2.207000000
C     0.544000000     0.942000000     1.005000000
H     1.186000000     1.501000000     1.681000000
C     0.149000000     1.578000000    -0.167000000
C     0.437000000     3.011000000    -0.536000000
O     0.809000000     3.754000000     0.357000000
O     0.339000000     3.431000000    -1.668000000
