17
-92.46377
C    -0.919000000     0.548000000    -1.011000000
H    -1.709000000     0.791000000    -1.717000000
C    -0.349000000    -0.707000000    -1.041000000
H    -0.709000000    -1.432000000    -1.767000000
C     0.521000000    -1.133000000    -0.102000000
C     1.079000000    -2.525000000    -0.031000000
H     0.165000000    -3.118000000     0.032000000
H     1.598000000    -2.872000000    -0.926000000
H     1.602000000    -2.533000000     0.928000000
C     0.901000000    -0.245000000     0.946000000
H     1.689000000    -0.503000000     1.648000000
C     0.371000000     1.063000000     0.959000000
H     0.555000000     1.754000000     1.777000000
C    -0.526000000     1.468000000    -0.009000000
C    -1.221000000     2.755000000     0.089000000
O    -1.119000000     3.510000000     1.063000000
O    -1.928000000     3.176000000    -0.835000000
