17
-77.29687
C    -1.052000000     0.343000000    -1.052000000
H    -1.840000000     0.373000000    -1.801000000
C    -0.376000000    -0.938000000    -0.895000000
H    -0.703000000    -1.806000000    -1.461000000
C     0.535000000    -1.098000000     0.167000000
C     1.087000000    -2.452000000     0.385000000
H     1.969000000    -2.332000000     1.019000000
H     0.379000000    -3.229000000     0.681000000
H     1.533000000    -2.794000000    -0.551000000
C     0.871000000    -0.006000000     0.950000000
H     1.566000000    -0.104000000     1.780000000
C     0.224000000     1.216000000     0.792000000
H     0.477000000     2.078000000     1.404000000
C    -0.716000000     1.408000000    -0.179000000
C    -1.137000000     2.767000000    -0.371000000
O    -1.287000000     3.530000000     0.556000000
O    -1.537000000     3.046000000    -1.417000000
