17
-93.25457
C     1.103000000    -0.651000000     0.695000000
H     1.903000000    -1.183000000     1.202000000
C    -0.026000000    -1.225000000     0.257000000
H    -0.123000000    -2.298000000     0.398000000
C    -0.974000000    -0.546000000    -0.483000000
C    -2.155000000    -1.306000000    -1.033000000
H    -3.077000000    -1.235000000    -0.452000000
H    -2.304000000    -0.870000000    -2.023000000
H    -1.894000000    -2.360000000    -1.149000000
C    -0.861000000     0.782000000    -0.683000000
H    -1.596000000     1.439000000    -1.140000000
C     0.273000000     1.406000000    -0.137000000
H     0.344000000     2.484000000    -0.259000000
C     1.311000000     0.721000000     0.463000000
C     2.392000000     1.409000000     1.235000000
O     2.251000000     2.581000000     1.555000000
O     3.437000000     0.854000000     1.556000000
