17
-93.57602
C     0.154000000     0.131000000    -1.502000000
H     0.202000000     0.109000000    -2.588000000
C     0.300000000    -1.041000000    -0.801000000
H     0.516000000    -1.960000000    -1.340000000
C     0.164000000    -1.054000000     0.561000000
C     0.359000000    -2.340000000     1.434000000
H     1.346000000    -2.460000000     1.885000000
H    -0.343000000    -2.313000000     2.270000000
H     0.044000000    -3.196000000     0.834000000
C    -0.108000000     0.145000000     1.233000000
H    -0.270000000     0.059000000     2.304000000
C    -0.243000000     1.361000000     0.628000000
H    -0.478000000     2.312000000     1.099000000
C    -0.221000000     1.350000000    -0.791000000
C    -0.396000000     2.630000000    -1.561000000
O    -0.669000000     3.601000000    -0.897000000
O    -0.353000000     2.659000000    -2.761000000
