17
-88.18868
C    -0.200000000     0.710000000    -1.205000000
H    -0.264000000     1.171000000    -2.187000000
C    -0.336000000    -0.663000000    -0.965000000
H    -0.438000000    -1.273000000    -1.859000000
C    -0.056000000    -1.259000000     0.214000000
C     0.070000000    -2.741000000     0.270000000
H     0.336000000    -3.195000000     1.227000000
H    -0.832000000    -3.287000000    -0.014000000
H     0.841000000    -2.899000000    -0.487000000
C     0.192000000    -0.365000000     1.266000000
H     0.516000000    -0.772000000     2.221000000
C     0.153000000     1.030000000     1.170000000
H     0.432000000     1.654000000     2.016000000
C    -0.003000000     1.562000000    -0.131000000
C    -0.066000000     3.037000000    -0.423000000
O    -0.469000000     3.756000000     0.432000000
O     0.127000000     3.536000000    -1.537000000
