17
-95.81379
C    -1.203000000     0.802000000    -0.052000000
H    -2.145000000     1.298000000    -0.273000000
C    -0.974000000    -0.350000000    -0.822000000
H    -1.662000000    -0.744000000    -1.566000000
C     0.185000000    -1.055000000    -0.548000000
C     0.384000000    -2.329000000    -1.249000000
H    -0.434000000    -2.464000000    -1.959000000
H     1.317000000    -2.285000000    -1.815000000
H     0.397000000    -3.176000000    -0.560000000
C     1.139000000    -0.612000000     0.349000000
H     2.030000000    -1.212000000     0.512000000
C     0.994000000     0.631000000     0.995000000
H     1.767000000     1.077000000     1.616000000
C    -0.268000000     1.317000000     0.835000000
C    -0.469000000     2.656000000     1.412000000
O     0.541000000     3.226000000     1.680000000
O    -1.600000000     3.217000000     1.446000000
