17
-98.87060
C    -0.037000000     0.804000000    -1.248000000
H     0.047000000     1.299000000    -2.212000000
C     0.573000000    -0.438000000    -1.123000000
H     1.114000000    -0.775000000    -2.003000000
C     0.523000000    -1.073000000     0.091000000
C     1.412000000    -2.286000000     0.401000000
H     2.370000000    -1.984000000     0.829000000
H     0.916000000    -2.946000000     1.115000000
H     1.541000000    -2.816000000    -0.545000000
C    -0.194000000    -0.572000000     1.168000000
H    -0.131000000    -1.084000000     2.125000000
C    -0.889000000     0.653000000     1.031000000
H    -1.470000000     1.032000000     1.867000000
C    -0.730000000     1.314000000    -0.174000000
C    -1.463000000     2.600000000    -0.388000000
O    -2.277000000     2.985000000     0.467000000
O    -1.298000000     3.279000000    -1.393000000
