17
-94.72711
C     1.153000000    -0.427000000     0.749000000
H     1.912000000    -0.903000000     1.365000000
C     0.319000000    -1.182000000    -0.046000000
H     0.436000000    -2.263000000    -0.060000000
C    -0.755000000    -0.669000000    -0.707000000
C    -1.604000000    -1.614000000    -1.497000000
H    -1.833000000    -1.393000000    -2.542000000
H    -1.249000000    -2.641000000    -1.388000000
H    -2.544000000    -1.642000000    -0.941000000
C    -0.952000000     0.725000000    -0.665000000
H    -1.812000000     1.073000000    -1.232000000
C    -0.140000000     1.495000000     0.187000000
H    -0.272000000     2.573000000     0.249000000
C     0.882000000     0.895000000     0.965000000
C     1.906000000     1.755000000     1.699000000
O     1.811000000     2.975000000     1.509000000
O     2.749000000     1.250000000     2.355000000
