17
-90.65392
C    -0.413000000     1.011000000    -0.917000000
H    -0.815000000     1.750000000    -1.605000000
C    -0.217000000    -0.309000000    -1.301000000
H    -0.284000000    -0.522000000    -2.365000000
C     0.152000000    -1.203000000    -0.298000000
C     0.412000000    -2.640000000    -0.624000000
H    -0.004000000    -3.432000000     0.003000000
H    -0.197000000    -2.720000000    -1.527000000
H     1.450000000    -2.878000000    -0.865000000
C     0.230000000    -0.763000000     1.011000000
H     0.505000000    -1.430000000     1.824000000
C     0.134000000     0.611000000     1.380000000
H     0.272000000     0.921000000     2.413000000
C    -0.240000000     1.494000000     0.424000000
C    -0.302000000     2.967000000     0.738000000
O    -0.026000000     3.348000000     1.818000000
O    -0.659000000     3.793000000    -0.112000000
