17
-90.79840
C    -1.010000000     0.851000000    -0.719000000
H    -1.708000000     1.425000000    -1.323000000
C    -0.890000000    -0.535000000    -0.777000000
H    -1.634000000    -0.990000000    -1.427000000
C     0.119000000    -1.230000000    -0.089000000
C     0.254000000    -2.711000000    -0.257000000
H     1.241000000    -3.151000000    -0.099000000
H    -0.388000000    -3.279000000     0.419000000
H     0.027000000    -2.989000000    -1.289000000
C     0.968000000    -0.476000000     0.773000000
H     1.724000000    -1.032000000     1.321000000
C     0.766000000     0.910000000     0.930000000
H     1.447000000     1.416000000     1.609000000
C    -0.186000000     1.592000000     0.134000000
C    -0.208000000     3.007000000     0.219000000
O     0.772000000     3.645000000     0.431000000
O    -1.300000000     3.548000000     0.151000000
