17
-94.42636
C    -1.382000000    -0.341000000    -0.185000000
H    -2.451000000    -0.452000000    -0.349000000
C    -0.619000000     0.500000000    -1.020000000
H    -1.116000000     0.922000000    -1.889000000
C     0.733000000     0.699000000    -0.789000000
C     1.471000000     1.598000000    -1.658000000
H     2.540000000     1.746000000    -1.487000000
H     1.369000000     1.367000000    -2.720000000
H     1.165000000     2.632000000    -1.488000000
C     1.199000000     0.226000000     0.454000000
H     2.187000000     0.584000000     0.731000000
C     0.497000000    -0.612000000     1.291000000
H     0.909000000    -0.988000000     2.224000000
C    -0.833000000    -1.002000000     0.930000000
C    -1.680000000    -1.961000000     1.779000000
O    -1.154000000    -2.529000000     2.729000000
O    -2.841000000    -2.384000000     1.451000000
