17
-92.37571
C     0.567000000     1.324000000    -0.459000000
H     0.970000000     2.266000000    -0.823000000
C     1.055000000     0.102000000    -0.874000000
H     1.847000000    -0.002000000    -1.610000000
C     0.480000000    -1.074000000    -0.353000000
C     0.997000000    -2.469000000    -0.705000000
H     1.337000000    -3.059000000     0.149000000
H     0.259000000    -3.166000000    -1.106000000
H     1.822000000    -2.508000000    -1.420000000
C    -0.685000000    -0.953000000     0.463000000
H    -1.221000000    -1.864000000     0.714000000
C    -1.133000000     0.255000000     0.905000000
H    -1.974000000     0.283000000     1.594000000
C    -0.578000000     1.415000000     0.404000000
C    -1.095000000     2.784000000     0.900000000
O    -1.907000000     2.817000000     1.774000000
O    -0.744000000     3.856000000     0.445000000
