17
-91.50898
C    -0.878000000     0.130000000     1.151000000
H    -1.483000000     0.206000000     2.050000000
C     0.514000000    -0.086000000     1.139000000
H     1.010000000     0.028000000     2.099000000
C     1.266000000    -0.195000000    -0.006000000
C     2.636000000    -0.591000000     0.154000000
H     3.064000000    -1.022000000    -0.753000000
H     3.253000000     0.295000000     0.324000000
H     2.797000000    -1.238000000     1.019000000
C     0.572000000     0.016000000    -1.223000000
H     1.112000000    -0.040000000    -2.165000000
C    -0.787000000     0.213000000    -1.249000000
H    -1.335000000     0.334000000    -2.179000000
C    -1.496000000     0.222000000    -0.028000000
C    -3.005000000     0.460000000    -0.059000000
O    -3.504000000     0.508000000    -1.167000000
O    -3.736000000     0.765000000     0.886000000
