17
-96.37839
C    -0.184000000     1.082000000    -0.954000000
H    -0.235000000     1.821000000    -1.749000000
C     0.635000000    -0.017000000    -1.146000000
H     1.106000000    -0.218000000    -2.105000000
C     0.650000000    -0.993000000    -0.177000000
C     1.625000000    -2.124000000    -0.437000000
H     2.639000000    -1.794000000    -0.672000000
H     1.766000000    -2.743000000     0.451000000
H     1.219000000    -2.791000000    -1.200000000
C    -0.031000000    -0.850000000     1.045000000
H     0.032000000    -1.630000000     1.800000000
C    -0.825000000     0.282000000     1.281000000
H    -1.348000000     0.321000000     2.233000000
C    -0.895000000     1.297000000     0.280000000
C    -1.778000000     2.465000000     0.401000000
O    -2.208000000     2.776000000     1.505000000
O    -2.166000000     3.116000000    -0.562000000
