17
-93.38285
C    -0.559000000     1.323000000     0.061000000
H    -0.888000000     2.339000000     0.261000000
C     0.224000000     0.704000000     1.027000000
H     0.383000000     1.334000000     1.899000000
C     0.821000000    -0.526000000     0.786000000
C     1.726000000    -1.108000000     1.854000000
H     1.440000000    -0.753000000     2.847000000
H     1.612000000    -2.192000000     1.918000000
H     2.770000000    -0.877000000     1.632000000
C     0.483000000    -1.214000000    -0.429000000
H     0.780000000    -2.250000000    -0.571000000
C    -0.414000000    -0.610000000    -1.338000000
H    -0.772000000    -1.147000000    -2.213000000
C    -0.952000000     0.657000000    -1.102000000
C    -1.925000000     1.261000000    -1.978000000
O    -2.132000000     0.841000000    -3.072000000
O    -2.595000000     2.221000000    -1.588000000
