17
-93.29638
C     0.262000000     1.361000000    -0.543000000
H     0.307000000     2.426000000    -0.758000000
C     0.836000000     0.772000000     0.609000000
H     1.494000000     1.353000000     1.250000000
C     0.624000000    -0.553000000     0.921000000
C     1.159000000    -1.071000000     2.241000000
H     0.795000000    -2.092000000     2.372000000
H     2.238000000    -0.931000000     2.341000000
H     0.684000000    -0.416000000     2.974000000
C    -0.110000000    -1.349000000     0.075000000
H    -0.302000000    -2.411000000     0.210000000
C    -0.826000000    -0.794000000    -0.999000000
H    -1.472000000    -1.432000000    -1.596000000
C    -0.628000000     0.564000000    -1.331000000
C    -1.481000000     1.323000000    -2.307000000
O    -2.347000000     0.774000000    -2.928000000
O    -1.233000000     2.481000000    -2.530000000
