17
-96.64654
C     0.241000000     1.449000000    -0.065000000
H     0.498000000     2.501000000    -0.160000000
C     1.219000000     0.462000000     0.060000000
H     2.269000000     0.741000000     0.057000000
C     0.872000000    -0.870000000     0.109000000
C     1.923000000    -1.955000000     0.140000000
H     2.866000000    -1.572000000    -0.255000000
H     2.161000000    -2.316000000     1.143000000
H     1.553000000    -2.729000000    -0.536000000
C    -0.463000000    -1.199000000     0.007000000
H    -0.722000000    -2.239000000    -0.177000000
C    -1.448000000    -0.261000000    -0.024000000
H    -2.458000000    -0.652000000    -0.124000000
C    -1.118000000     1.115000000    -0.063000000
C    -2.191000000     2.183000000    -0.003000000
O    -3.375000000     1.995000000    -0.248000000
O    -1.827000000     3.347000000     0.134000000
