17
-90.03679
C    -1.260000000     0.830000000    -0.035000000
H    -2.252000000     1.253000000     0.099000000
C    -0.562000000     0.403000000     1.153000000
H    -0.977000000     0.636000000     2.131000000
C     0.584000000    -0.325000000     1.043000000
C     1.469000000    -0.677000000     2.216000000
H     1.315000000    -1.713000000     2.526000000
H     2.509000000    -0.530000000     1.919000000
H     1.251000000    -0.101000000     3.118000000
C     1.075000000    -0.658000000    -0.199000000
H     1.952000000    -1.278000000    -0.367000000
C     0.360000000    -0.355000000    -1.373000000
H     0.722000000    -0.805000000    -2.294000000
C    -0.783000000     0.508000000    -1.321000000
C    -1.568000000     0.847000000    -2.522000000
O    -1.100000000     0.810000000    -3.638000000
O    -2.731000000     1.160000000    -2.460000000
