17
-98.16076
C     1.103000000     1.018000000     0.433000000
H     1.864000000     1.689000000     0.825000000
C     1.198000000    -0.381000000     0.509000000
H     2.066000000    -0.830000000     0.984000000
C     0.178000000    -1.217000000     0.034000000
C     0.168000000    -2.777000000     0.085000000
H     0.483000000    -3.070000000    -0.919000000
H     0.941000000    -3.142000000     0.766000000
H    -0.798000000    -3.243000000     0.289000000
C    -0.916000000    -0.588000000    -0.571000000
H    -1.769000000    -1.155000000    -0.937000000
C    -1.108000000     0.760000000    -0.638000000
H    -1.970000000     1.278000000    -1.051000000
C    -0.085000000     1.553000000    -0.032000000
C    -0.382000000     3.004000000     0.043000000
O    -1.550000000     3.324000000     0.003000000
O     0.577000000     3.777000000     0.171000000
