17
-95.56824
C     0.033000000     1.410000000    -0.497000000
H     0.020000000     2.385000000    -0.979000000
C     0.647000000     0.306000000    -1.093000000
H     1.029000000     0.425000000    -2.103000000
C     0.631000000    -0.946000000    -0.485000000
C     1.171000000    -2.153000000    -1.244000000
H     2.256000000    -2.235000000    -1.340000000
H     0.719000000    -3.029000000    -0.774000000
H     0.713000000    -2.093000000    -2.233000000
C    -0.035000000    -1.165000000     0.701000000
H     0.046000000    -2.110000000     1.233000000
C    -0.697000000    -0.054000000     1.321000000
H    -1.059000000    -0.127000000     2.343000000
C    -0.656000000     1.223000000     0.728000000
C    -1.385000000     2.410000000     1.320000000
O    -2.204000000     2.204000000     2.177000000
O    -1.231000000     3.545000000     0.917000000
