17
-99.15621
C    -0.493000000     1.404000000     0.008000000
H    -0.827000000     2.427000000    -0.144000000
C     0.348000000     0.813000000    -0.975000000
H     0.726000000     1.464000000    -1.759000000
C     0.668000000    -0.493000000    -0.881000000
C     1.839000000    -1.079000000    -1.745000000
H     2.106000000    -2.093000000    -1.441000000
H     1.638000000    -1.053000000    -2.818000000
H     2.701000000    -0.436000000    -1.556000000
C     0.202000000    -1.277000000     0.160000000
H     0.436000000    -2.335000000     0.251000000
C    -0.662000000    -0.730000000     1.094000000
H    -1.164000000    -1.386000000     1.801000000
C    -0.970000000     0.626000000     1.060000000
C    -1.915000000     1.246000000     2.037000000
O    -2.653000000     0.455000000     2.681000000
O    -1.977000000     2.449000000     2.235000000
