17
-89.36048
C    -0.827000000     1.224000000     0.218000000
H    -1.508000000     2.072000000     0.230000000
C    -0.116000000     0.947000000    -0.954000000
H    -0.089000000     1.674000000    -1.762000000
C     0.544000000    -0.281000000    -1.054000000
C     1.355000000    -0.566000000    -2.250000000
H     2.414000000    -0.596000000    -1.982000000
H     1.120000000    -1.509000000    -2.748000000
H     1.285000000     0.257000000    -2.965000000
C     0.525000000    -1.237000000    -0.038000000
H     1.030000000    -2.199000000    -0.050000000
C    -0.216000000    -0.903000000     1.130000000
H    -0.064000000    -1.579000000     1.967000000
C    -0.788000000     0.343000000     1.322000000
C    -1.315000000     0.730000000     2.688000000
O    -1.414000000    -0.136000000     3.472000000
O    -1.931000000     1.761000000     2.777000000
