17
-94.37953
C    -0.421000000     1.313000000     0.458000000
H    -0.534000000     2.353000000     0.750000000
C     0.850000000     0.944000000    -0.061000000
H     1.590000000     1.735000000    -0.143000000
C     1.112000000    -0.323000000    -0.430000000
C     2.560000000    -0.635000000    -0.827000000
H     2.568000000    -1.058000000    -1.834000000
H     3.191000000     0.245000000    -0.684000000
H     2.936000000    -1.426000000    -0.173000000
C     0.083000000    -1.318000000    -0.294000000
H     0.228000000    -2.304000000    -0.727000000
C    -1.137000000    -0.924000000     0.284000000
H    -1.851000000    -1.740000000     0.205000000
C    -1.476000000     0.410000000     0.576000000
C    -2.851000000     0.825000000     0.921000000
O    -3.558000000    -0.020000000     1.425000000
O    -3.283000000     1.927000000     0.550000000
