17
-94.23351
C    -0.515000000     1.433000000    -0.078000000
H    -0.783000000     2.480000000    -0.193000000
C     0.193000000     0.750000000    -1.120000000
H     0.449000000     1.281000000    -2.033000000
C     0.565000000    -0.601000000    -0.948000000
C     1.387000000    -1.455000000    -1.877000000
H     2.068000000    -2.102000000    -1.320000000
H     0.777000000    -2.153000000    -2.455000000
H     1.986000000    -0.802000000    -2.516000000
C     0.215000000    -1.220000000     0.224000000
H     0.592000000    -2.224000000     0.402000000
C    -0.435000000    -0.501000000     1.213000000
H    -0.567000000    -0.953000000     2.193000000
C    -0.874000000     0.795000000     1.071000000
C    -1.454000000     1.592000000     2.181000000
O    -1.593000000     1.018000000     3.262000000
O    -2.012000000     2.654000000     1.994000000
