17
-92.70075
C    -0.935000000     1.094000000     0.419000000
H    -1.553000000     1.971000000     0.594000000
C     0.121000000     1.170000000    -0.482000000
H     0.437000000     2.125000000    -0.894000000
C     0.964000000     0.065000000    -0.783000000
C     2.064000000     0.211000000    -1.818000000
H     1.877000000    -0.542000000    -2.586000000
H     2.230000000     1.242000000    -2.139000000
H     3.049000000    -0.094000000    -1.460000000
C     0.685000000    -1.114000000    -0.138000000
H     1.293000000    -1.965000000    -0.433000000
C    -0.387000000    -1.229000000     0.762000000
H    -0.593000000    -2.163000000     1.277000000
C    -1.160000000    -0.117000000     1.071000000
C    -2.347000000    -0.211000000     1.983000000
O    -2.848000000    -1.247000000     2.239000000
O    -2.892000000     0.803000000     2.380000000
