17
-98.79247
C    -0.731000000     1.308000000    -0.330000000
H    -1.396000000     2.060000000    -0.746000000
C     0.370000000     0.847000000    -1.002000000
H     0.799000000     1.327000000    -1.878000000
C     0.948000000    -0.378000000    -0.606000000
C     2.250000000    -0.883000000    -1.216000000
H     2.788000000    -0.121000000    -1.783000000
H     2.932000000    -1.260000000    -0.451000000
H     2.046000000    -1.790000000    -1.789000000
C     0.409000000    -1.152000000     0.416000000
H     0.949000000    -2.052000000     0.698000000
C    -0.676000000    -0.677000000     1.105000000
H    -1.014000000    -1.200000000     1.995000000
C    -1.252000000     0.523000000     0.759000000
C    -2.485000000     1.019000000     1.408000000
O    -2.798000000     0.468000000     2.466000000
O    -3.146000000     1.964000000     0.947000000
