17
-92.88076
C    -0.740000000     1.286000000    -0.064000000
H    -1.304000000     2.203000000    -0.210000000
C     0.299000000     0.967000000    -0.948000000
H     0.718000000     1.692000000    -1.641000000
C     0.887000000    -0.270000000    -0.817000000
C     1.862000000    -0.841000000    -1.786000000
H     1.910000000    -1.932000000    -1.776000000
H     1.530000000    -0.485000000    -2.763000000
H     2.857000000    -0.411000000    -1.654000000
C     0.621000000    -1.086000000     0.290000000
H     1.201000000    -2.002000000     0.371000000
C    -0.373000000    -0.750000000     1.184000000
H    -0.561000000    -1.285000000     2.112000000
C    -1.104000000     0.435000000     1.051000000
C    -2.241000000     0.836000000     2.048000000
O    -2.488000000    -0.029000000     2.874000000
O    -3.070000000     1.665000000     1.737000000
