17
-86.53418
C     0.589000000     0.989000000     0.870000000
H     0.886000000     1.635000000     1.693000000
C     1.030000000    -0.297000000     0.725000000
H     1.799000000    -0.703000000     1.376000000
C     0.442000000    -1.116000000    -0.153000000
C     0.935000000    -2.600000000    -0.254000000
H     2.003000000    -2.666000000    -0.038000000
H     0.358000000    -3.308000000     0.345000000
H     0.737000000    -2.913000000    -1.281000000
C    -0.624000000    -0.691000000    -0.890000000
H    -1.153000000    -1.362000000    -1.562000000
C    -1.136000000     0.579000000    -0.721000000
H    -1.934000000     0.994000000    -1.332000000
C    -0.474000000     1.523000000     0.121000000
C    -1.042000000     2.917000000     0.329000000
O    -2.126000000     3.206000000     0.015000000
O    -0.288000000     3.805000000     0.762000000
