17
-92.51057
C    -0.861000000     1.170000000     0.269000000
H    -1.463000000     2.039000000     0.521000000
C     0.367000000     1.174000000    -0.432000000
H     0.687000000     2.110000000    -0.881000000
C     1.173000000     0.095000000    -0.457000000
C     2.442000000     0.142000000    -1.229000000
H     2.155000000     0.228000000    -2.279000000
H     3.074000000     1.010000000    -1.027000000
H     2.961000000    -0.807000000    -1.083000000
C     0.676000000    -1.154000000     0.028000000
H     1.189000000    -2.102000000    -0.111000000
C    -0.645000000    -1.230000000     0.608000000
H    -1.046000000    -2.210000000     0.854000000
C    -1.391000000    -0.068000000     0.653000000
C    -2.762000000    -0.158000000     1.296000000
O    -2.923000000    -0.893000000     2.247000000
O    -3.641000000     0.654000000     1.031000000
