17
-93.83410
C    -0.817000000     1.087000000     0.426000000
H    -1.371000000     2.011000000     0.573000000
C     0.154000000     1.132000000    -0.593000000
H     0.251000000     2.067000000    -1.139000000
C     0.913000000     0.024000000    -0.889000000
C     1.990000000     0.139000000    -1.855000000
H     1.577000000     0.448000000    -2.818000000
H     2.743000000     0.825000000    -1.462000000
H     2.534000000    -0.806000000    -1.909000000
C     0.579000000    -1.214000000    -0.282000000
H     1.081000000    -2.142000000    -0.543000000
C    -0.413000000    -1.288000000     0.784000000
H    -0.693000000    -2.238000000     1.232000000
C    -1.122000000    -0.082000000     1.112000000
C    -2.120000000    -0.039000000     2.251000000
O    -2.860000000    -0.994000000     2.406000000
O    -2.433000000     1.070000000     2.708000000
