17
-100.04012
C    -0.812000000     1.195000000    -0.307000000
H    -1.431000000     2.034000000    -0.616000000
C    -0.031000000     0.501000000    -1.210000000
H     0.035000000     0.746000000    -2.267000000
C     0.669000000    -0.655000000    -0.851000000
C     1.675000000    -1.284000000    -1.733000000
H     1.270000000    -2.263000000    -2.000000000
H     1.727000000    -0.727000000    -2.671000000
H     2.628000000    -1.429000000    -1.219000000
C     0.552000000    -1.137000000     0.486000000
H     0.977000000    -2.096000000     0.771000000
C    -0.179000000    -0.382000000     1.387000000
H    -0.174000000    -0.714000000     2.422000000
C    -0.895000000     0.820000000     1.039000000
C    -1.791000000     1.592000000     1.988000000
O    -1.723000000     1.293000000     3.186000000
O    -2.492000000     2.509000000     1.599000000
