17
-90.55843
C     0.109000000     1.458000000    -0.143000000
H     0.199000000     2.530000000    -0.300000000
C    -0.143000000     0.624000000    -1.207000000
H    -0.248000000     1.084000000    -2.186000000
C    -0.207000000    -0.747000000    -0.955000000
C    -0.280000000    -1.751000000    -2.041000000
H     0.708000000    -2.103000000    -2.346000000
H    -0.967000000    -2.551000000    -1.757000000
H    -0.652000000    -1.386000000    -3.000000000
C    -0.048000000    -1.221000000     0.356000000
H    -0.028000000    -2.287000000     0.570000000
C     0.036000000    -0.322000000     1.416000000
H     0.078000000    -0.747000000     2.416000000
C     0.177000000     1.033000000     1.187000000
C     0.357000000     1.909000000     2.354000000
O     0.771000000     1.432000000     3.393000000
O     0.141000000     3.043000000     2.251000000
