17
-98.31349
C     0.279000000     1.397000000    -0.298000000
H     0.589000000     2.382000000    -0.636000000
C     0.122000000     0.357000000    -1.222000000
H     0.441000000     0.540000000    -2.245000000
C    -0.256000000    -0.962000000    -0.811000000
C    -0.315000000    -2.039000000    -1.859000000
H    -0.841000000    -1.582000000    -2.701000000
H     0.739000000    -2.252000000    -2.044000000
H    -0.848000000    -2.923000000    -1.503000000
C    -0.418000000    -1.161000000     0.551000000
H    -0.723000000    -2.146000000     0.897000000
C    -0.211000000    -0.128000000     1.476000000
H    -0.314000000    -0.380000000     2.529000000
C     0.161000000     1.164000000     1.070000000
C     0.432000000     2.255000000     1.988000000
O     0.523000000     2.075000000     3.244000000
O     0.634000000     3.398000000     1.571000000
