17
-90.48160
C     0.245000000     1.004000000    -1.004000000
H     0.481000000     1.657000000    -1.840000000
C     0.409000000    -0.357000000    -1.149000000
H     0.811000000    -0.714000000    -2.094000000
C     0.068000000    -1.216000000    -0.141000000
C     0.291000000    -2.675000000    -0.437000000
H    -0.564000000    -3.336000000    -0.287000000
H     0.530000000    -2.903000000    -1.478000000
H     1.193000000    -2.979000000     0.099000000
C    -0.321000000    -0.747000000     1.089000000
H    -0.683000000    -1.429000000     1.854000000
C    -0.430000000     0.668000000     1.317000000
H    -0.724000000     1.051000000     2.291000000
C    -0.163000000     1.563000000     0.237000000
C    -0.313000000     3.082000000     0.470000000
O    -0.423000000     3.579000000     1.564000000
O    -0.404000000     3.747000000    -0.489000000
