17
-82.59493
C    -0.689000000    -0.389000000    -1.215000000
H    -1.155000000    -0.708000000    -2.144000000
C     0.541000000    -0.904000000    -0.755000000
H     1.071000000    -1.734000000    -1.216000000
C     1.115000000    -0.361000000     0.401000000
C     2.350000000    -1.055000000     0.975000000
H     2.900000000    -0.407000000     1.661000000
H     2.105000000    -2.051000000     1.351000000
H     3.054000000    -1.080000000     0.141000000
C     0.442000000     0.598000000     1.133000000
H     0.843000000     0.881000000     2.103000000
C    -0.792000000     1.088000000     0.630000000
H    -1.357000000     1.791000000     1.238000000
C    -1.385000000     0.632000000    -0.548000000
C    -2.704000000     1.076000000    -1.019000000
O    -3.046000000     2.207000000    -0.929000000
O    -3.301000000     0.411000000    -1.806000000
