17
-97.92829
C     0.064000000     1.468000000    -0.300000000
H     0.263000000     2.512000000    -0.526000000
C     0.614000000     0.418000000    -1.090000000
H     1.311000000     0.734000000    -1.861000000
C     0.514000000    -0.910000000    -0.722000000
C     1.186000000    -2.052000000    -1.456000000
H     0.632000000    -2.124000000    -2.394000000
H     2.252000000    -1.859000000    -1.596000000
H     1.002000000    -2.987000000    -0.924000000
C    -0.274000000    -1.215000000     0.398000000
H    -0.380000000    -2.258000000     0.686000000
C    -0.792000000    -0.152000000     1.192000000
H    -1.365000000    -0.455000000     2.065000000
C    -0.630000000     1.144000000     0.847000000
C    -1.250000000     2.302000000     1.717000000
O    -1.972000000     2.022000000     2.687000000
O    -1.171000000     3.407000000     1.271000000
