17
-100.44084
C    -1.067000000     0.145000000    -0.945000000
H    -1.698000000     0.150000000    -1.830000000
C    -0.029000000    -0.817000000    -1.039000000
H    -0.001000000    -1.533000000    -1.856000000
C     0.948000000    -0.821000000    -0.009000000
C     1.982000000    -1.866000000    -0.160000000
H     2.406000000    -1.849000000    -1.166000000
H     2.853000000    -1.803000000     0.496000000
H     1.472000000    -2.815000000     0.019000000
C     0.886000000     0.128000000     0.994000000
H     1.608000000     0.171000000     1.805000000
C    -0.189000000     1.004000000     1.101000000
H    -0.320000000     1.738000000     1.892000000
C    -1.207000000     0.992000000     0.146000000
C    -2.281000000     2.104000000     0.163000000
O    -2.495000000     2.731000000     1.248000000
O    -2.869000000     2.342000000    -0.854000000
