17
-97.20536
C     0.884000000     0.818000000     0.798000000
H     1.639000000     1.274000000     1.432000000
C     0.994000000    -0.551000000     0.620000000
H     1.839000000    -1.134000000     0.979000000
C     0.067000000    -1.236000000    -0.148000000
C     0.248000000    -2.699000000    -0.430000000
H    -0.228000000    -2.981000000    -1.371000000
H     1.298000000    -2.981000000    -0.327000000
H    -0.158000000    -3.314000000     0.376000000
C    -1.016000000    -0.497000000    -0.685000000
H    -1.726000000    -1.126000000    -1.216000000
C    -1.111000000     0.899000000    -0.520000000
H    -1.877000000     1.463000000    -1.045000000
C    -0.176000000     1.568000000     0.307000000
C    -0.222000000     3.084000000     0.375000000
O    -1.210000000     3.705000000     0.062000000
O     0.748000000     3.710000000     0.792000000
