17
-83.47405
C    -0.356000000    -0.864000000    -1.140000000
H    -0.685000000    -1.678000000    -1.783000000
C     0.695000000    -1.083000000    -0.233000000
H     1.274000000    -2.001000000    -0.169000000
C     1.023000000    -0.096000000     0.700000000
C     1.956000000    -0.429000000     1.819000000
H     2.847000000    -0.844000000     1.342000000
H     2.323000000     0.510000000     2.238000000
H     1.458000000    -1.143000000     2.478000000
C     0.340000000     1.081000000     0.712000000
H     0.811000000     1.843000000     1.327000000
C    -0.851000000     1.216000000    -0.047000000
H    -1.534000000     2.049000000     0.098000000
C    -1.142000000     0.264000000    -1.030000000
C    -2.378000000     0.335000000    -1.924000000
O    -3.091000000     1.173000000    -1.510000000
O    -2.696000000    -0.338000000    -2.876000000
