17
-94.60225
C    -0.674000000    -1.057000000    -0.775000000
H    -1.271000000    -1.641000000    -1.471000000
C     0.543000000    -0.499000000    -1.173000000
H     0.962000000    -0.749000000    -2.145000000
C     1.123000000     0.443000000    -0.337000000
C     2.193000000     1.337000000    -0.811000000
H     3.044000000     0.694000000    -0.578000000
H     2.153000000     1.655000000    -1.856000000
H     2.236000000     2.256000000    -0.223000000
C     0.540000000     0.766000000     0.894000000
H     0.972000000     1.549000000     1.513000000
C    -0.571000000     0.051000000     1.344000000
H    -1.050000000     0.308000000     2.286000000
C    -1.256000000    -0.750000000     0.468000000
C    -2.623000000    -1.268000000     0.829000000
O    -2.973000000    -1.304000000     2.026000000
O    -3.354000000    -1.783000000     0.014000000
