17
-89.08142
C    -1.290000000    -0.495000000    -0.164000000
H    -2.307000000    -0.742000000    -0.459000000
C    -0.572000000     0.194000000    -1.114000000
H    -1.102000000     0.365000000    -2.047000000
C     0.669000000     0.673000000    -0.818000000
C     1.409000000     1.566000000    -1.799000000
H     2.217000000     0.984000000    -2.248000000
H     0.629000000     1.852000000    -2.508000000
H     1.730000000     2.479000000    -1.294000000
C     1.184000000     0.377000000     0.415000000
H     2.108000000     0.829000000     0.767000000
C     0.587000000    -0.492000000     1.335000000
H     1.019000000    -0.765000000     2.294000000
C    -0.755000000    -0.874000000     1.019000000
C    -1.595000000    -1.760000000     1.949000000
O    -1.434000000    -1.750000000     3.140000000
O    -2.501000000    -2.435000000     1.526000000
