17
-83.28857
C    -0.882000000    -0.921000000    -0.746000000
H    -1.516000000    -1.532000000    -1.383000000
C     0.127000000    -0.131000000    -1.254000000
H     0.348000000    -0.243000000    -2.313000000
C     0.924000000     0.624000000    -0.448000000
C     2.017000000     1.518000000    -1.040000000
H     1.586000000     2.153000000    -1.817000000
H     2.588000000     2.123000000    -0.332000000
H     2.779000000     0.937000000    -1.564000000
C     0.742000000     0.622000000     0.890000000
H     1.333000000     1.215000000     1.583000000
C    -0.312000000    -0.065000000     1.442000000
H    -0.363000000    -0.092000000     2.527000000
C    -1.157000000    -0.883000000     0.622000000
C    -2.404000000    -1.600000000     1.150000000
O    -2.572000000    -1.689000000     2.282000000
O    -3.243000000    -2.033000000     0.403000000
