17
-99.70888
C    -1.464000000     0.078000000    -0.255000000
H    -2.518000000     0.171000000    -0.500000000
C    -0.522000000     0.916000000    -0.836000000
H    -0.869000000     1.660000000    -1.548000000
C     0.818000000     0.713000000    -0.540000000
C     1.815000000     1.578000000    -1.186000000
H     1.428000000     2.241000000    -1.962000000
H     2.264000000     2.213000000    -0.420000000
H     2.714000000     1.034000000    -1.484000000
C     1.207000000    -0.106000000     0.522000000
H     2.229000000    -0.064000000     0.887000000
C     0.267000000    -0.953000000     1.115000000
H     0.549000000    -1.767000000     1.777000000
C    -1.034000000    -0.943000000     0.646000000
C    -2.018000000    -2.004000000     1.092000000
O    -1.653000000    -2.834000000     1.934000000
O    -3.210000000    -1.926000000     0.764000000
