17
-96.62428
C     0.978000000     0.676000000     0.928000000
H     1.619000000     1.011000000     1.739000000
C     0.836000000    -0.706000000     0.761000000
H     1.500000000    -1.320000000     1.364000000
C    -0.044000000    -1.217000000    -0.179000000
C    -0.385000000    -2.687000000    -0.250000000
H    -0.994000000    -3.038000000     0.585000000
H    -0.850000000    -2.939000000    -1.205000000
H     0.567000000    -3.204000000    -0.107000000
C    -0.827000000    -0.350000000    -0.931000000
H    -1.537000000    -0.812000000    -1.612000000
C    -0.762000000     1.039000000    -0.714000000
H    -1.359000000     1.705000000    -1.331000000
C     0.198000000     1.528000000     0.161000000
C     0.316000000     3.009000000     0.291000000
O    -0.524000000     3.770000000    -0.300000000
O     1.270000000     3.531000000     0.800000000
