17
-95.59483
C     0.748000000     0.757000000     0.994000000
H     1.302000000     1.206000000     1.815000000
C     0.698000000    -0.596000000     0.844000000
H     1.253000000    -1.130000000     1.610000000
C    -0.047000000    -1.253000000    -0.163000000
C    -0.116000000    -2.745000000    -0.157000000
H    -0.457000000    -3.069000000     0.829000000
H    -0.731000000    -3.172000000    -0.952000000
H     0.883000000    -3.187000000    -0.190000000
C    -0.735000000    -0.455000000    -1.100000000
H    -1.249000000    -0.894000000    -1.952000000
C    -0.661000000     0.940000000    -0.956000000
H    -1.198000000     1.544000000    -1.684000000
C     0.124000000     1.574000000     0.023000000
C     0.060000000     3.076000000     0.292000000
O    -0.593000000     3.834000000    -0.412000000
O     0.723000000     3.568000000     1.158000000
