17
-91.08227
C    -0.630000000     1.316000000    -0.372000000
H    -0.922000000     2.270000000    -0.802000000
C    -0.120000000     0.362000000    -1.274000000
H    -0.026000000     0.504000000    -2.347000000
C     0.439000000    -0.845000000    -0.840000000
C     1.005000000    -1.721000000    -1.851000000
H     2.061000000    -1.458000000    -1.940000000
H     1.001000000    -2.753000000    -1.495000000
H     0.411000000    -1.551000000    -2.752000000
C     0.332000000    -1.141000000     0.539000000
H     0.770000000    -2.086000000     0.850000000
C    -0.223000000    -0.271000000     1.459000000
H    -0.111000000    -0.555000000     2.502000000
C    -0.611000000     1.050000000     1.062000000
C    -1.023000000     2.004000000     2.121000000
O    -1.379000000     1.631000000     3.218000000
O    -0.967000000     3.241000000     1.915000000
