17
-89.05150
C     0.342000000     1.410000000     0.140000000
H     0.473000000     2.489000000     0.128000000
C     0.186000000     0.726000000    -1.104000000
H     0.278000000     1.323000000    -2.008000000
C    -0.201000000    -0.641000000    -1.071000000
C    -0.533000000    -1.262000000    -2.351000000
H    -1.329000000    -0.655000000    -2.786000000
H     0.286000000    -1.275000000    -3.073000000
H    -0.870000000    -2.296000000    -2.247000000
C    -0.269000000    -1.250000000     0.102000000
H    -0.505000000    -2.308000000     0.026000000
C     0.018000000    -0.603000000     1.310000000
H    -0.016000000    -1.146000000     2.251000000
C     0.364000000     0.733000000     1.372000000
C     0.603000000     1.419000000     2.727000000
O     0.686000000     0.727000000     3.702000000
O     0.480000000     2.606000000     2.884000000
