17
-94.29789
C    -0.260000000     1.431000000     0.056000000
H    -0.450000000     2.491000000    -0.094000000
C    -0.219000000     0.632000000    -1.037000000
H    -0.333000000     1.138000000    -1.993000000
C     0.041000000    -0.744000000    -0.950000000
C     0.026000000    -1.518000000    -2.233000000
H     0.058000000    -0.909000000    -3.138000000
H     0.843000000    -2.241000000    -2.281000000
H    -0.903000000    -2.087000000    -2.303000000
C     0.453000000    -1.285000000     0.213000000
H     0.757000000    -2.328000000     0.250000000
C     0.408000000    -0.442000000     1.400000000
H     0.701000000    -0.899000000     2.342000000
C    -0.104000000     0.875000000     1.316000000
C    -0.252000000     1.730000000     2.496000000
O    -0.245000000     1.243000000     3.622000000
O    -0.515000000     2.908000000     2.339000000
