17
-94.65001
C    -0.877000000    -0.947000000     0.671000000
H    -1.456000000    -1.525000000     1.387000000
C    -1.130000000     0.401000000     0.633000000
H    -1.935000000     0.840000000     1.218000000
C    -0.291000000     1.210000000    -0.069000000
C    -0.304000000     2.768000000     0.006000000
H     0.376000000     3.039000000     0.817000000
H     0.002000000     3.238000000    -0.931000000
H    -1.322000000     3.052000000     0.279000000
C     0.827000000     0.632000000    -0.674000000
H     1.585000000     1.231000000    -1.173000000
C     0.959000000    -0.773000000    -0.869000000
H     1.788000000    -1.230000000    -1.403000000
C     0.128000000    -1.584000000    -0.105000000
C     0.475000000    -3.065000000     0.047000000
O     1.078000000    -3.575000000    -0.855000000
O     0.092000000    -3.718000000     1.026000000
