17
-92.18002
C     0.480000000     0.757000000     1.210000000
H     0.727000000     1.236000000     2.154000000
C     0.405000000    -0.649000000     1.061000000
H     0.618000000    -1.304000000     1.903000000
C    -0.032000000    -1.245000000    -0.092000000
C     0.014000000    -2.733000000    -0.361000000
H    -0.949000000    -3.158000000    -0.072000000
H     0.239000000    -2.943000000    -1.409000000
H     0.829000000    -3.012000000     0.311000000
C    -0.503000000    -0.435000000    -1.131000000
H    -0.845000000    -0.899000000    -2.052000000
C    -0.581000000     0.928000000    -0.949000000
H    -0.922000000     1.558000000    -1.767000000
C    -0.054000000     1.537000000     0.242000000
C     0.113000000     3.023000000     0.304000000
O    -0.250000000     3.782000000    -0.584000000
O     0.714000000     3.557000000     1.232000000
