17
-97.66832
C     1.114000000     0.937000000     0.417000000
H     1.890000000     1.683000000     0.568000000
C     0.978000000     0.377000000    -0.843000000
H     1.576000000     0.652000000    -1.708000000
C    -0.037000000    -0.541000000    -1.050000000
C    -0.292000000    -1.100000000    -2.410000000
H    -0.943000000    -0.419000000    -2.962000000
H     0.534000000    -1.081000000    -3.124000000
H    -0.882000000    -2.019000000    -2.401000000
C    -0.962000000    -0.895000000    -0.077000000
H    -1.804000000    -1.503000000    -0.399000000
C    -0.841000000    -0.326000000     1.185000000
H    -1.641000000    -0.502000000     1.899000000
C     0.230000000     0.550000000     1.471000000
C     0.292000000     1.227000000     2.789000000
O    -0.015000000     0.618000000     3.863000000
O     0.796000000     2.341000000     2.787000000
