17
-99.81869
C    -0.887000000    -0.320000000     1.194000000
H    -1.646000000    -0.464000000     1.958000000
C    -0.560000000     0.929000000     0.690000000
H    -1.060000000     1.791000000     1.124000000
C     0.390000000     1.150000000    -0.321000000
C     0.548000000     2.490000000    -0.943000000
H    -0.113000000     2.538000000    -1.811000000
H     0.160000000     3.278000000    -0.294000000
H     1.538000000     2.675000000    -1.365000000
C     0.973000000     0.038000000    -0.889000000
H     1.611000000     0.169000000    -1.759000000
C     0.578000000    -1.229000000    -0.502000000
H     0.916000000    -2.086000000    -1.079000000
C    -0.264000000    -1.420000000     0.625000000
C    -0.678000000    -2.820000000     0.997000000
O    -0.496000000    -3.755000000     0.214000000
O    -1.017000000    -2.957000000     2.159000000
