17
-89.44468
C    -0.456000000    -0.310000000     1.387000000
H    -0.893000000    -0.536000000     2.356000000
C    -0.339000000     0.953000000     0.874000000
H    -0.802000000     1.769000000     1.423000000
C     0.031000000     1.126000000    -0.471000000
C     0.062000000     2.468000000    -1.111000000
H    -0.776000000     2.513000000    -1.809000000
H    -0.031000000     3.273000000    -0.378000000
H     0.969000000     2.598000000    -1.704000000
C     0.515000000     0.096000000    -1.153000000
H     1.034000000     0.197000000    -2.102000000
C     0.458000000    -1.158000000    -0.611000000
H     0.815000000    -1.956000000    -1.257000000
C    -0.061000000    -1.401000000     0.643000000
C    -0.099000000    -2.843000000     1.141000000
O    -0.084000000    -3.799000000     0.433000000
O    -0.341000000    -2.990000000     2.333000000
