17
-87.06233
C    -0.133000000    -0.298000000     1.470000000
H    -0.187000000    -0.428000000     2.548000000
C    -0.529000000     0.898000000     0.841000000
H    -0.970000000     1.640000000     1.501000000
C    -0.264000000     1.108000000    -0.513000000
C    -0.503000000     2.420000000    -1.253000000
H    -1.499000000     2.366000000    -1.699000000
H    -0.508000000     3.223000000    -0.512000000
H     0.275000000     2.637000000    -1.987000000
C     0.232000000     0.017000000    -1.264000000
H     0.371000000     0.052000000    -2.342000000
C     0.489000000    -1.163000000    -0.696000000
H     0.767000000    -2.000000000    -1.332000000
C     0.282000000    -1.382000000     0.690000000
C     0.518000000    -2.708000000     1.384000000
O     0.792000000    -3.636000000     0.649000000
O     0.862000000    -2.750000000     2.509000000
