17
-93.09117
C    -0.312000000     0.057000000     1.428000000
H    -0.651000000     0.236000000     2.445000000
C    -0.752000000     0.954000000     0.407000000
H    -1.407000000     1.795000000     0.619000000
C    -0.390000000     0.739000000    -0.888000000
C    -0.887000000     1.747000000    -1.874000000
H    -0.652000000     2.688000000    -1.371000000
H    -0.273000000     1.819000000    -2.773000000
H    -1.948000000     1.642000000    -2.108000000
C     0.403000000    -0.350000000    -1.269000000
H     0.626000000    -0.536000000    -2.317000000
C     0.812000000    -1.247000000    -0.303000000
H     1.479000000    -2.060000000    -0.578000000
C     0.510000000    -1.057000000     1.103000000
C     0.969000000    -1.974000000     2.180000000
O     1.920000000    -2.647000000     1.967000000
O     0.545000000    -1.800000000     3.328000000
