17
-94.42941
C    -0.139000000    -0.850000000     1.166000000
H    -0.341000000    -1.500000000     2.013000000
C    -1.214000000    -0.382000000     0.399000000
H    -2.242000000    -0.514000000     0.728000000
C    -0.911000000     0.464000000    -0.612000000
C    -2.057000000     1.102000000    -1.475000000
H    -2.996000000     0.545000000    -1.492000000
H    -2.312000000     2.103000000    -1.122000000
H    -1.804000000     1.184000000    -2.535000000
C     0.411000000     0.690000000    -0.997000000
H     0.623000000     1.295000000    -1.875000000
C     1.492000000     0.208000000    -0.235000000
H     2.487000000     0.608000000    -0.418000000
C     1.207000000    -0.629000000     0.858000000
C     2.304000000    -1.301000000     1.620000000
O     3.445000000    -1.293000000     1.241000000
O     2.048000000    -1.733000000     2.738000000
