17
-83.70507
C    -1.088000000    -0.125000000     0.982000000
H    -1.873000000    -0.173000000     1.731000000
C    -0.755000000     1.034000000     0.326000000
H    -1.353000000     1.913000000     0.550000000
C     0.341000000     1.043000000    -0.522000000
C     0.575000000     2.353000000    -1.315000000
H     0.051000000     2.204000000    -2.262000000
H     0.228000000     3.237000000    -0.776000000
H     1.653000000     2.451000000    -1.460000000
C     1.015000000    -0.088000000    -0.790000000
H     1.801000000    -0.161000000    -1.537000000
C     0.769000000    -1.301000000    -0.174000000
H     1.294000000    -2.217000000    -0.432000000
C    -0.333000000    -1.319000000     0.762000000
C    -0.718000000    -2.613000000     1.419000000
O    -0.130000000    -3.571000000     1.137000000
O    -1.481000000    -2.665000000     2.358000000
