17
-98.26709
C    -1.294000000    -0.655000000     0.291000000
H    -2.289000000    -1.070000000     0.432000000
C    -0.969000000     0.015000000    -0.868000000
H    -1.772000000     0.035000000    -1.600000000
C     0.322000000     0.596000000    -1.068000000
C     0.638000000     1.531000000    -2.182000000
H     0.985000000     2.539000000    -1.948000000
H     1.391000000     1.127000000    -2.861000000
H    -0.273000000     1.785000000    -2.727000000
C     1.294000000     0.327000000    -0.121000000
H     2.278000000     0.780000000    -0.204000000
C     0.935000000    -0.360000000     1.083000000
H     1.703000000    -0.695000000     1.776000000
C    -0.359000000    -0.789000000     1.326000000
C    -0.751000000    -1.482000000     2.585000000
O     0.100000000    -1.975000000     3.305000000
O    -1.947000000    -1.712000000     2.780000000
