17
-99.08071
C    -0.092000000     0.879000000     1.248000000
H    -0.267000000     1.356000000     2.209000000
C     0.094000000    -0.499000000     1.256000000
H     0.098000000    -1.099000000     2.162000000
C     0.132000000    -1.210000000    -0.008000000
C     0.124000000    -2.747000000    -0.022000000
H     0.246000000    -3.145000000     0.988000000
H    -0.852000000    -3.136000000    -0.319000000
H     0.890000000    -3.136000000    -0.696000000
C     0.066000000    -0.532000000    -1.219000000
H     0.153000000    -1.066000000    -2.162000000
C    -0.103000000     0.874000000    -1.203000000
H    -0.100000000     1.499000000    -2.092000000
C    -0.127000000     1.582000000     0.018000000
C    -0.120000000     3.075000000    -0.072000000
O     0.040000000     3.709000000    -1.115000000
O    -0.176000000     3.588000000     1.025000000
