17
-92.91951
C     0.351000000     0.499000000     1.353000000
H     0.781000000     0.813000000     2.300000000
C     0.240000000    -0.821000000     1.031000000
H     0.367000000    -1.625000000     1.752000000
C    -0.106000000    -1.150000000    -0.295000000
C    -0.022000000    -2.573000000    -0.812000000
H     0.964000000    -2.852000000    -1.191000000
H    -0.278000000    -3.397000000    -0.143000000
H    -0.774000000    -2.757000000    -1.582000000
C    -0.518000000    -0.174000000    -1.137000000
H    -0.913000000    -0.479000000    -2.102000000
C    -0.407000000     1.155000000    -0.818000000
H    -0.673000000     1.872000000    -1.591000000
C     0.159000000     1.518000000     0.419000000
C     0.277000000     2.946000000     0.781000000
O    -0.156000000     3.848000000     0.118000000
O     0.708000000     3.181000000     1.921000000
