17
-93.10321
C    -0.123000000    -1.390000000     0.300000000
H    -0.267000000    -2.459000000     0.434000000
C    -1.161000000    -0.474000000     0.549000000
H    -2.088000000    -0.863000000     0.963000000
C    -0.877000000     0.869000000     0.289000000
C    -1.880000000     1.905000000     0.535000000
H    -2.106000000     1.934000000     1.603000000
H    -1.695000000     2.875000000     0.070000000
H    -2.791000000     1.563000000     0.039000000
C     0.375000000     1.188000000    -0.220000000
H     0.603000000     2.229000000    -0.438000000
C     1.362000000     0.282000000    -0.510000000
H     2.302000000     0.537000000    -0.992000000
C     1.104000000    -1.075000000    -0.300000000
C     2.161000000    -2.115000000    -0.680000000
O     2.978000000    -1.790000000    -1.442000000
O     2.100000000    -3.221000000    -0.194000000
