17
-95.06467
C     0.005000000    -1.394000000     0.388000000
H    -0.087000000    -2.416000000     0.745000000
C    -0.076000000    -0.356000000     1.314000000
H    -0.142000000    -0.570000000     2.377000000
C    -0.086000000     0.931000000     0.814000000
C    -0.265000000     2.127000000     1.770000000
H    -1.314000000     2.383000000     1.934000000
H     0.338000000     1.937000000     2.660000000
H     0.109000000     3.064000000     1.352000000
C     0.080000000     1.141000000    -0.596000000
H     0.057000000     2.163000000    -0.964000000
C     0.294000000     0.023000000    -1.436000000
H     0.187000000     0.308000000    -2.480000000
C     0.142000000    -1.268000000    -0.996000000
C     0.197000000    -2.396000000    -2.029000000
O     0.311000000    -2.131000000    -3.221000000
O     0.247000000    -3.539000000    -1.627000000
