17
-98.58916
C    -0.314000000    -1.429000000    -0.442000000
H    -0.607000000    -2.470000000    -0.549000000
C    -1.280000000    -0.435000000    -0.137000000
H    -2.349000000    -0.628000000    -0.099000000
C    -0.832000000     0.807000000     0.253000000
C    -1.770000000     2.031000000     0.590000000
H    -1.736000000     2.369000000     1.628000000
H    -1.585000000     2.895000000    -0.052000000
H    -2.809000000     1.771000000     0.377000000
C     0.543000000     1.066000000     0.341000000
H     0.849000000     2.084000000     0.567000000
C     1.457000000     0.078000000     0.054000000
H     2.486000000     0.403000000     0.181000000
C     1.026000000    -1.180000000    -0.384000000
C     2.065000000    -2.193000000    -0.659000000
O     3.210000000    -1.799000000    -0.918000000
O     1.641000000    -3.373000000    -0.758000000
