17
-83.58200
C     0.090000000    -1.336000000     0.638000000
H     0.350000000    -2.206000000     1.235000000
C     0.486000000    -0.111000000     1.160000000
H     0.990000000    -0.231000000     2.115000000
C     0.181000000     1.077000000     0.563000000
C     0.675000000     2.382000000     1.154000000
H     1.476000000     2.255000000     1.886000000
H     1.061000000     3.011000000     0.348000000
H    -0.152000000     2.945000000     1.591000000
C    -0.401000000     1.023000000    -0.679000000
H    -0.769000000     1.931000000    -1.150000000
C    -0.667000000    -0.176000000    -1.273000000
H    -1.046000000    -0.144000000    -2.292000000
C    -0.394000000    -1.369000000    -0.677000000
C    -0.585000000    -2.651000000    -1.336000000
O    -1.095000000    -2.776000000    -2.448000000
O    -0.203000000    -3.632000000    -0.830000000
