17
-94.76752
C     0.716000000    -1.248000000     0.474000000
H     1.328000000    -2.029000000     0.918000000
C     0.957000000     0.109000000     0.878000000
H     1.763000000     0.221000000     1.600000000
C     0.225000000     1.137000000     0.308000000
C     0.537000000     2.626000000     0.654000000
H     1.062000000     3.193000000    -0.118000000
H    -0.373000000     3.199000000     0.845000000
H     1.213000000     2.741000000     1.504000000
C    -0.860000000     0.863000000    -0.535000000
H    -1.346000000     1.696000000    -1.037000000
C    -1.064000000    -0.431000000    -0.877000000
H    -1.942000000    -0.602000000    -1.495000000
C    -0.324000000    -1.514000000    -0.456000000
C    -0.530000000    -2.954000000    -0.860000000
O    -1.588000000    -3.163000000    -1.378000000
O     0.224000000    -3.848000000    -0.417000000
