17
-95.36927
C     0.646000000    -1.209000000     0.622000000
H     1.205000000    -1.967000000     1.165000000
C     0.405000000    -0.026000000     1.296000000
H     0.604000000    -0.010000000     2.364000000
C    -0.173000000     1.068000000     0.628000000
C    -0.622000000     2.278000000     1.343000000
H     0.173000000     2.752000000     1.922000000
H    -0.999000000     3.054000000     0.673000000
H    -1.520000000     2.082000000     1.931000000
C    -0.531000000     0.903000000    -0.733000000
H    -0.988000000     1.666000000    -1.358000000
C    -0.247000000    -0.268000000    -1.387000000
H    -0.515000000    -0.211000000    -2.439000000
C     0.330000000    -1.341000000    -0.752000000
C     0.715000000    -2.598000000    -1.563000000
O     0.371000000    -2.604000000    -2.716000000
O     1.142000000    -3.567000000    -1.004000000
