17
-94.25880
C    -0.024000000    -1.153000000     1.002000000
H    -0.072000000    -1.939000000     1.751000000
C     0.112000000     0.179000000     1.304000000
H     0.302000000     0.373000000     2.356000000
C     0.186000000     1.184000000     0.337000000
C     0.135000000     2.666000000     0.601000000
H    -0.863000000     3.094000000     0.486000000
H     0.455000000     3.033000000     1.578000000
H     0.691000000     3.253000000    -0.133000000
C     0.091000000     0.822000000    -0.981000000
H     0.051000000     1.578000000    -1.760000000
C     0.093000000    -0.518000000    -1.330000000
H    -0.012000000    -0.915000000    -2.337000000
C    -0.105000000    -1.543000000    -0.353000000
C    -0.331000000    -2.993000000    -0.742000000
O    -0.561000000    -3.282000000    -1.879000000
O    -0.151000000    -3.842000000     0.108000000
