17
-90.35031
C     0.936000000    -0.939000000    -0.622000000
H     1.806000000    -1.497000000    -0.959000000
C     1.133000000     0.406000000    -0.468000000
H     2.034000000     0.937000000    -0.763000000
C     0.188000000     1.176000000     0.200000000
C     0.490000000     2.593000000     0.510000000
H    -0.321000000     3.249000000     0.188000000
H     0.494000000     2.678000000     1.599000000
H     1.410000000     2.907000000     0.013000000
C    -1.091000000     0.678000000     0.489000000
H    -1.844000000     1.345000000     0.900000000
C    -1.271000000    -0.718000000     0.251000000
H    -2.140000000    -1.251000000     0.628000000
C    -0.255000000    -1.497000000    -0.262000000
C    -0.453000000    -2.952000000    -0.452000000
O    -1.551000000    -3.494000000    -0.349000000
O     0.431000000    -3.618000000    -0.905000000
