17
-93.74744
C     0.262000000     0.489000000     1.456000000
H     0.319000000     0.740000000     2.512000000
C     0.119000000    -0.848000000     1.106000000
H     0.129000000    -1.728000000     1.744000000
C     0.039000000    -1.183000000    -0.277000000
C    -0.165000000    -2.584000000    -0.815000000
H    -0.236000000    -3.259000000     0.040000000
H    -1.025000000    -2.634000000    -1.486000000
H     0.745000000    -2.804000000    -1.379000000
C    -0.046000000    -0.177000000    -1.225000000
H    -0.307000000    -0.409000000    -2.254000000
C    -0.066000000     1.152000000    -0.863000000
H    -0.112000000     1.841000000    -1.703000000
C     0.115000000     1.493000000     0.431000000
C     0.152000000     2.943000000     0.785000000
O    -0.256000000     3.761000000    -0.030000000
O     0.331000000     3.201000000     1.959000000
