17
-97.59734
C    -0.019000000    -1.437000000     0.482000000
H     0.061000000    -2.436000000     0.903000000
C     0.664000000    -0.373000000     1.052000000
H     1.386000000    -0.510000000     1.853000000
C     0.596000000     0.890000000     0.482000000
C     1.371000000     2.051000000     1.117000000
H     2.179000000     2.384000000     0.462000000
H     0.796000000     2.911000000     1.464000000
H     2.037000000     1.681000000     1.900000000
C    -0.122000000     1.193000000    -0.700000000
H    -0.080000000     2.189000000    -1.134000000
C    -0.807000000     0.115000000    -1.226000000
H    -1.484000000     0.338000000    -2.047000000
C    -0.869000000    -1.135000000    -0.619000000
C    -1.728000000    -2.333000000    -1.166000000
O    -2.718000000    -2.086000000    -1.830000000
O    -1.260000000    -3.439000000    -1.000000000
