17
-95.37206
C     0.294000000    -1.347000000    -0.535000000
H     0.622000000    -2.311000000    -0.915000000
C     0.834000000    -0.750000000     0.579000000
H     1.703000000    -1.215000000     1.037000000
C     0.434000000     0.452000000     1.065000000
C     1.220000000     1.146000000     2.165000000
H     2.294000000     1.222000000     1.982000000
H     0.814000000     2.137000000     2.380000000
H     1.081000000     0.498000000     3.033000000
C    -0.486000000     1.190000000     0.325000000
H    -0.859000000     2.106000000     0.777000000
C    -1.099000000     0.572000000    -0.756000000
H    -1.881000000     1.147000000    -1.246000000
C    -0.718000000    -0.654000000    -1.276000000
C    -1.311000000    -1.250000000    -2.525000000
O    -2.122000000    -0.640000000    -3.156000000
O    -0.813000000    -2.299000000    -2.941000000
