17
-103.81554
C     0.858000000    -1.106000000     0.580000000
H     1.450000000    -1.830000000     1.133000000
C     0.988000000     0.281000000     0.802000000
H     1.659000000     0.682000000     1.558000000
C     0.102000000     1.206000000     0.167000000
C     0.180000000     2.716000000     0.507000000
H     0.293000000     2.837000000     1.587000000
H     1.051000000     3.197000000     0.058000000
H    -0.751000000     3.215000000     0.231000000
C    -0.832000000     0.739000000    -0.697000000
H    -1.522000000     1.429000000    -1.176000000
C    -0.910000000    -0.665000000    -0.967000000
H    -1.676000000    -0.940000000    -1.688000000
C    -0.081000000    -1.555000000    -0.318000000
C    -0.251000000    -3.041000000    -0.548000000
O    -1.100000000    -3.417000000    -1.346000000
O     0.534000000    -3.751000000     0.120000000
