17
-92.55231
C    -0.524000000    -1.390000000     0.207000000
H    -0.691000000    -2.457000000     0.333000000
C     0.682000000    -0.913000000     0.769000000
H     1.298000000    -1.584000000     1.362000000
C     1.019000000     0.418000000     0.571000000
C     2.320000000     1.007000000     1.133000000
H     3.135000000     0.298000000     1.293000000
H     2.612000000     1.748000000     0.386000000
H     2.086000000     1.542000000     2.056000000
C     0.182000000     1.206000000    -0.192000000
H     0.507000000     2.223000000    -0.394000000
C    -0.927000000     0.706000000    -0.823000000
H    -1.457000000     1.356000000    -1.515000000
C    -1.361000000    -0.606000000    -0.583000000
C    -2.623000000    -1.062000000    -1.292000000
O    -3.371000000    -0.270000000    -1.841000000
O    -2.881000000    -2.216000000    -1.464000000
