17
-97.77645
C    -0.324000000    -1.275000000    -0.571000000
H    -0.434000000    -2.318000000    -0.855000000
C     0.947000000    -0.706000000    -0.552000000
H     1.781000000    -1.263000000    -0.972000000
C     1.109000000     0.506000000     0.017000000
C     2.491000000     1.080000000     0.152000000
H     2.863000000     1.480000000    -0.793000000
H     2.625000000     1.838000000     0.926000000
H     3.192000000     0.314000000     0.491000000
C     0.001000000     1.162000000     0.534000000
H     0.021000000     2.181000000     0.913000000
C    -1.250000000     0.615000000     0.441000000
H    -2.072000000     1.171000000     0.884000000
C    -1.426000000    -0.606000000    -0.123000000
C    -2.779000000    -1.254000000    -0.138000000
O    -3.749000000    -0.644000000     0.443000000
O    -3.001000000    -2.278000000    -0.804000000
