17
-87.62785
C    -0.903000000    -1.128000000     0.086000000
H    -1.617000000    -1.893000000     0.382000000
C     0.284000000    -0.938000000     0.776000000
H     0.557000000    -1.623000000     1.574000000
C     1.137000000     0.108000000     0.545000000
C     2.412000000     0.235000000     1.259000000
H     2.385000000     1.193000000     1.782000000
H     2.553000000    -0.614000000     1.932000000
H     3.247000000     0.121000000     0.563000000
C     0.761000000     1.067000000    -0.401000000
H     1.288000000     2.003000000    -0.568000000
C    -0.458000000     0.892000000    -1.041000000
H    -0.774000000     1.678000000    -1.722000000
C    -1.357000000    -0.121000000    -0.784000000
C    -2.821000000    -0.200000000    -1.250000000
O    -3.152000000     0.370000000    -2.238000000
O    -3.535000000    -1.143000000    -0.893000000
