17
-97.30547
C    -0.620000000    -1.335000000     0.390000000
H    -0.915000000    -2.365000000     0.575000000
C     0.733000000    -1.024000000     0.405000000
H     1.396000000    -1.849000000     0.652000000
C     1.203000000     0.234000000     0.076000000
C     2.654000000     0.472000000    -0.061000000
H     3.151000000    -0.411000000     0.346000000
H     2.809000000     0.669000000    -1.124000000
H     2.954000000     1.416000000     0.398000000
C     0.381000000     1.261000000    -0.227000000
H     0.765000000     2.244000000    -0.487000000
C    -0.994000000     1.001000000    -0.206000000
H    -1.709000000     1.798000000    -0.388000000
C    -1.503000000    -0.302000000     0.097000000
C    -3.038000000    -0.534000000    -0.074000000
O    -3.833000000     0.405000000    -0.258000000
O    -3.428000000    -1.686000000    -0.111000000
