17
-96.30915
C    -1.254000000    -0.723000000     0.272000000
H    -2.070000000    -1.295000000     0.706000000
C     0.078000000    -1.223000000     0.540000000
H     0.237000000    -2.108000000     1.152000000
C     1.167000000    -0.489000000     0.080000000
C     2.484000000    -0.799000000     0.689000000
H     2.393000000    -0.906000000     1.771000000
H     2.927000000    -1.709000000     0.279000000
H     3.200000000    -0.023000000     0.411000000
C     0.969000000     0.716000000    -0.609000000
H     1.776000000     1.409000000    -0.830000000
C    -0.343000000     1.168000000    -0.842000000
H    -0.455000000     2.073000000    -1.434000000
C    -1.476000000     0.451000000    -0.404000000
C    -2.824000000     0.985000000    -0.555000000
O    -2.972000000     2.006000000    -1.208000000
O    -3.829000000     0.469000000    -0.023000000
