17
-95.36027
C    -1.267000000    -0.080000000     0.711000000
H    -2.183000000    -0.255000000     1.269000000
C    -0.092000000    -0.701000000     1.109000000
H    -0.065000000    -1.342000000     1.986000000
C     1.059000000    -0.548000000     0.330000000
C     2.314000000    -1.302000000     0.640000000
H     2.920000000    -1.439000000    -0.258000000
H     2.976000000    -0.915000000     1.417000000
H     2.041000000    -2.297000000     0.998000000
C     1.047000000     0.349000000    -0.782000000
H     2.023000000     0.540000000    -1.222000000
C    -0.133000000     0.984000000    -1.130000000
H    -0.208000000     1.785000000    -1.861000000
C    -1.328000000     0.718000000    -0.409000000
C    -2.678000000     1.302000000    -0.823000000
O    -2.712000000     2.081000000    -1.748000000
O    -3.712000000     1.125000000    -0.235000000
