17
-99.57375
C    -0.591000000    -1.109000000     0.793000000
H    -0.781000000    -1.978000000     1.417000000
C     0.753000000    -0.991000000     0.325000000
H     1.537000000    -1.676000000     0.638000000
C     1.176000000     0.126000000    -0.411000000
C     2.665000000     0.318000000    -0.726000000
H     2.785000000     1.359000000    -1.032000000
H     3.264000000     0.174000000     0.176000000
H     3.031000000    -0.319000000    -1.534000000
C     0.208000000     1.110000000    -0.666000000
H     0.512000000     2.007000000    -1.199000000
C    -1.156000000     0.965000000    -0.305000000
H    -1.865000000     1.674000000    -0.725000000
C    -1.579000000    -0.191000000     0.370000000
C    -2.965000000    -0.439000000     0.839000000
O    -3.677000000     0.544000000     0.816000000
O    -3.309000000    -1.580000000     1.223000000
