17
-99.87051
C    -0.356000000    -0.196000000    -1.419000000
H    -0.644000000    -0.371000000    -2.452000000
C    -0.188000000    -1.213000000    -0.475000000
H    -0.461000000    -2.219000000    -0.784000000
C     0.186000000    -0.929000000     0.849000000
C     0.276000000    -2.047000000     1.858000000
H     0.525000000    -1.572000000     2.809000000
H    -0.681000000    -2.564000000     1.958000000
H     1.143000000    -2.673000000     1.639000000
C     0.417000000     0.432000000     1.196000000
H     0.799000000     0.642000000     2.192000000
C     0.173000000     1.455000000     0.263000000
H     0.145000000     2.499000000     0.564000000
C    -0.256000000     1.145000000    -1.067000000
C    -0.374000000     2.240000000    -2.089000000
O     0.260000000     3.284000000    -1.897000000
O    -0.966000000     2.079000000    -3.139000000
