17
-99.21812
C    -0.741000000    -0.041000000    -1.326000000
H    -1.249000000    -0.174000000    -2.278000000
C    -0.497000000    -1.104000000    -0.468000000
H    -0.853000000    -2.082000000    -0.780000000
C     0.254000000    -0.964000000     0.765000000
C     0.476000000    -2.166000000     1.668000000
H     0.057000000    -3.089000000     1.262000000
H     1.519000000    -2.292000000     1.968000000
H    -0.046000000    -2.069000000     2.622000000
C     0.750000000     0.310000000     1.059000000
H     1.215000000     0.404000000     2.038000000
C     0.499000000     1.379000000     0.201000000
H     0.819000000     2.361000000     0.542000000
C    -0.283000000     1.260000000    -0.951000000
C    -0.517000000     2.440000000    -1.870000000
O    -0.441000000     3.604000000    -1.469000000
O    -0.970000000     2.230000000    -2.984000000
