17
-93.11939
C     0.392000000    -0.296000000    -1.436000000
H     0.757000000    -0.577000000    -2.421000000
C     0.474000000    -1.190000000    -0.371000000
H     0.716000000    -2.248000000    -0.443000000
C     0.134000000    -0.796000000     0.911000000
C     0.144000000    -1.803000000     2.017000000
H     1.086000000    -2.023000000     2.523000000
H    -0.580000000    -1.420000000     2.740000000
H    -0.203000000    -2.696000000     1.493000000
C    -0.233000000     0.535000000     1.176000000
H    -0.530000000     0.780000000     2.192000000
C    -0.423000000     1.384000000     0.146000000
H    -0.814000000     2.379000000     0.343000000
C    -0.171000000     0.994000000    -1.208000000
C    -0.270000000     2.012000000    -2.279000000
O    -0.068000000     3.161000000    -1.895000000
O    -0.411000000     1.807000000    -3.496000000
