17
-85.61596
C    -0.499000000    -0.367000000    -1.270000000
H    -0.860000000    -0.877000000    -2.160000000
C    -0.247000000    -1.193000000    -0.269000000
H    -0.506000000    -2.244000000    -0.377000000
C     0.228000000    -0.789000000     0.931000000
C     0.779000000    -1.728000000     1.993000000
H     1.820000000    -1.936000000     1.736000000
H     0.618000000    -1.217000000     2.944000000
H     0.173000000    -2.629000000     2.106000000
C     0.428000000     0.573000000     1.078000000
H     0.862000000     0.885000000     2.025000000
C     0.002000000     1.515000000     0.073000000
H     0.236000000     2.549000000     0.312000000
C    -0.467000000     1.024000000    -1.174000000
C    -0.766000000     1.908000000    -2.325000000
O    -0.683000000     3.133000000    -2.270000000
O    -1.112000000     1.387000000    -3.347000000
