17
-98.69300
C    -0.795000000    -0.321000000    -1.254000000
H    -1.363000000    -0.659000000    -2.117000000
C    -0.391000000    -1.256000000    -0.267000000
H    -0.591000000    -2.317000000    -0.397000000
C     0.317000000    -0.819000000     0.850000000
C     0.835000000    -1.838000000     1.856000000
H     0.510000000    -1.557000000     2.860000000
H     0.465000000    -2.838000000     1.619000000
H     1.924000000    -1.921000000     1.847000000
C     0.665000000     0.534000000     1.004000000
H     1.260000000     0.911000000     1.832000000
C     0.243000000     1.439000000     0.023000000
H     0.515000000     2.480000000     0.181000000
C    -0.540000000     1.034000000    -1.042000000
C    -0.940000000     2.095000000    -2.060000000
O    -1.046000000     3.280000000    -1.755000000
O    -1.074000000     1.761000000    -3.184000000
