17
-90.99825
C    -0.669000000    -0.740000000    -1.098000000
H    -1.212000000    -1.405000000    -1.765000000
C    -0.251000000    -1.255000000     0.172000000
H    -0.397000000    -2.318000000     0.347000000
C     0.456000000    -0.473000000     1.020000000
C     0.978000000    -1.038000000     2.326000000
H     1.922000000    -1.547000000     2.120000000
H     1.244000000    -0.311000000     3.097000000
H     0.352000000    -1.829000000     2.743000000
C     0.617000000     0.913000000     0.740000000
H     0.979000000     1.603000000     1.498000000
C     0.173000000     1.453000000    -0.435000000
H     0.172000000     2.518000000    -0.656000000
C    -0.477000000     0.605000000    -1.325000000
C    -1.138000000     1.159000000    -2.596000000
O    -1.069000000     2.288000000    -2.796000000
O    -1.680000000     0.382000000    -3.393000000
