17
-97.77003
C     0.165000000     1.052000000    -1.010000000
H     0.409000000     1.780000000    -1.780000000
C     1.102000000     0.115000000    -0.673000000
H     2.066000000     0.075000000    -1.174000000
C     0.898000000    -0.826000000     0.366000000
C     2.020000000    -1.658000000     0.904000000
H     2.287000000    -1.106000000     1.808000000
H     1.672000000    -2.687000000     1.016000000
H     2.830000000    -1.621000000     0.173000000
C    -0.386000000    -0.898000000     0.875000000
H    -0.646000000    -1.634000000     1.631000000
C    -1.362000000     0.022000000     0.474000000
H    -2.354000000    -0.042000000     0.914000000
C    -1.115000000     0.969000000    -0.524000000
C    -2.266000000     1.877000000    -0.977000000
O    -3.348000000     1.615000000    -0.528000000
O    -1.973000000     2.968000000    -1.503000000
