17
-95.65649
C     0.272000000     1.225000000    -0.703000000
H     0.599000000     2.085000000    -1.282000000
C     1.283000000     0.543000000    -0.001000000
H     2.322000000     0.862000000     0.028000000
C     0.841000000    -0.597000000     0.662000000
C     1.746000000    -1.389000000     1.489000000
H     1.644000000    -1.020000000     2.512000000
H     1.507000000    -2.452000000     1.416000000
H     2.793000000    -1.286000000     1.197000000
C    -0.484000000    -1.023000000     0.600000000
H    -0.666000000    -1.967000000     1.106000000
C    -1.468000000    -0.331000000    -0.128000000
H    -2.445000000    -0.787000000    -0.260000000
C    -1.047000000     0.803000000    -0.823000000
C    -2.009000000     1.570000000    -1.710000000
O    -3.178000000     1.186000000    -1.810000000
O    -1.715000000     2.572000000    -2.298000000
