17
-90.09679
C     0.168000000     1.163000000    -0.977000000
H     0.503000000     1.945000000    -1.653000000
C     0.972000000     0.009000000    -0.892000000
H     1.850000000    -0.004000000    -1.533000000
C     0.716000000    -1.005000000     0.020000000
C     1.640000000    -2.193000000     0.132000000
H     1.424000000    -2.610000000     1.118000000
H     1.435000000    -2.995000000    -0.580000000
H     2.703000000    -1.973000000     0.248000000
C    -0.347000000    -0.814000000     0.932000000
H    -0.556000000    -1.636000000     1.613000000
C    -1.188000000     0.273000000     0.839000000
H    -1.885000000     0.332000000     1.670000000
C    -0.909000000     1.295000000    -0.126000000
C    -1.865000000     2.468000000    -0.183000000
O    -2.736000000     2.605000000     0.602000000
O    -1.926000000     3.141000000    -1.231000000
