17
-91.78144
C    -0.026000000     1.179000000    -0.893000000
H     0.128000000     1.943000000    -1.650000000
C     1.026000000     0.254000000    -0.771000000
H     1.907000000     0.372000000    -1.398000000
C     0.914000000    -0.874000000     0.038000000
C     2.024000000    -1.819000000     0.289000000
H     1.760000000    -2.647000000    -0.373000000
H     2.978000000    -1.391000000    -0.028000000
H     2.151000000    -2.205000000     1.302000000
C    -0.277000000    -1.005000000     0.786000000
H    -0.322000000    -1.918000000     1.375000000
C    -1.274000000    -0.005000000     0.764000000
H    -2.107000000    -0.052000000     1.460000000
C    -1.180000000     1.031000000    -0.161000000
C    -2.236000000     2.106000000    -0.172000000
O    -3.342000000     1.894000000     0.257000000
O    -2.124000000     3.143000000    -0.830000000
