17
-95.76771
C     0.173000000     1.144000000    -0.887000000
H     0.450000000     2.018000000    -1.472000000
C     1.078000000     0.065000000    -0.756000000
H     2.001000000     0.162000000    -1.321000000
C     0.674000000    -1.030000000    -0.041000000
C     1.644000000    -2.145000000     0.135000000
H     1.540000000    -2.867000000    -0.677000000
H     2.683000000    -1.850000000     0.294000000
H     1.379000000    -2.610000000     1.087000000
C    -0.457000000    -0.982000000     0.735000000
H    -0.634000000    -1.833000000     1.388000000
C    -1.284000000     0.173000000     0.775000000
H    -2.189000000     0.189000000     1.376000000
C    -0.955000000     1.240000000    -0.057000000
C    -1.779000000     2.461000000    -0.152000000
O    -2.666000000     2.630000000     0.673000000
O    -1.666000000     3.234000000    -1.092000000
