17
-90.80228
C     0.406000000     0.890000000    -1.110000000
H     0.668000000     1.581000000    -1.907000000
C     1.104000000    -0.250000000    -0.733000000
H     2.055000000    -0.594000000    -1.132000000
C     0.671000000    -0.981000000     0.362000000
C     1.393000000    -2.267000000     0.700000000
H     2.396000000    -2.022000000     1.057000000
H     0.838000000    -2.767000000     1.496000000
H     1.488000000    -2.929000000    -0.163000000
C    -0.499000000    -0.577000000     1.024000000
H    -0.964000000    -1.205000000     1.779000000
C    -1.235000000     0.486000000     0.575000000
H    -2.069000000     0.723000000     1.230000000
C    -0.791000000     1.281000000    -0.455000000
C    -1.522000000     2.606000000    -0.752000000
O    -2.600000000     2.844000000    -0.161000000
O    -1.347000000     3.178000000    -1.810000000
