17
-96.91271
C    -0.451000000     1.446000000     0.070000000
H    -0.663000000     2.512000000     0.089000000
C     0.737000000     0.929000000     0.625000000
H     1.395000000     1.665000000     1.080000000
C     1.052000000    -0.430000000     0.558000000
C     2.338000000    -1.048000000     1.118000000
H     3.193000000    -0.540000000     0.667000000
H     2.287000000    -1.087000000     2.208000000
H     2.449000000    -2.071000000     0.754000000
C     0.136000000    -1.305000000    -0.135000000
H     0.320000000    -2.371000000    -0.239000000
C    -1.024000000    -0.830000000    -0.738000000
H    -1.761000000    -1.369000000    -1.327000000
C    -1.318000000     0.577000000    -0.596000000
C    -2.595000000     1.164000000    -1.166000000
O    -3.381000000     0.414000000    -1.721000000
O    -2.710000000     2.351000000    -1.252000000
