17
-91.77081
C     0.230000000     1.205000000    -0.791000000
H     0.442000000     2.031000000    -1.467000000
C     1.173000000     0.247000000    -0.532000000
H     2.154000000     0.467000000    -0.944000000
C     0.880000000    -0.830000000     0.268000000
C     1.852000000    -1.985000000     0.465000000
H     2.541000000    -1.802000000     1.292000000
H     1.287000000    -2.863000000     0.783000000
H     2.345000000    -2.272000000    -0.466000000
C    -0.402000000    -0.963000000     0.730000000
H    -0.685000000    -1.839000000     1.307000000
C    -1.344000000     0.042000000     0.549000000
H    -2.343000000    -0.034000000     0.970000000
C    -1.009000000     1.174000000    -0.192000000
C    -2.083000000     2.210000000    -0.532000000
O    -3.224000000     1.878000000    -0.598000000
O    -1.806000000     3.336000000    -0.842000000
