17
-98.12672
C     0.977000000     0.809000000    -0.808000000
H     1.518000000     1.269000000    -1.632000000
C     0.967000000    -0.560000000    -0.595000000
H     1.775000000    -1.039000000    -1.141000000
C     0.148000000    -1.214000000     0.302000000
C     0.120000000    -2.728000000     0.331000000
H     0.353000000    -3.016000000     1.358000000
H    -0.857000000    -3.111000000     0.026000000
H     0.796000000    -3.208000000    -0.380000000
C    -0.789000000    -0.408000000     1.016000000
H    -1.476000000    -0.906000000     1.695000000
C    -0.771000000     1.011000000     0.889000000
H    -1.440000000     1.617000000     1.494000000
C    -0.003000000     1.604000000    -0.130000000
C    -0.346000000     2.958000000    -0.658000000
O    -0.993000000     3.741000000     0.041000000
O     0.026000000     3.173000000    -1.805000000
