17
-97.37247
C    -0.029000000     1.549000000     0.030000000
H    -0.029000000     2.628000000     0.157000000
C     1.171000000     0.737000000     0.177000000
H     2.096000000     1.229000000     0.465000000
C     1.079000000    -0.629000000     0.039000000
C     2.219000000    -1.533000000     0.410000000
H     2.536000000    -2.011000000    -0.519000000
H     3.032000000    -1.151000000     1.031000000
H     1.904000000    -2.418000000     0.966000000
C    -0.155000000    -1.221000000    -0.176000000
H    -0.273000000    -2.301000000    -0.147000000
C    -1.306000000    -0.463000000    -0.312000000
H    -2.252000000    -0.995000000    -0.363000000
C    -1.282000000     0.905000000    -0.282000000
C    -2.561000000     1.686000000    -0.401000000
O    -3.605000000     1.042000000    -0.619000000
O    -2.544000000     2.951000000    -0.452000000
