17
-88.76977
C     0.008000000     0.572000000    -1.344000000
H     0.097000000     1.018000000    -2.331000000
C     1.064000000    -0.161000000    -0.796000000
H     1.974000000    -0.355000000    -1.358000000
C     0.989000000    -0.580000000     0.525000000
C     1.900000000    -1.577000000     1.097000000
H     1.842000000    -1.563000000     2.187000000
H     1.568000000    -2.531000000     0.684000000
H     2.901000000    -1.281000000     0.776000000
C    -0.138000000    -0.387000000     1.249000000
H    -0.271000000    -0.879000000     2.209000000
C    -1.214000000     0.333000000     0.703000000
H    -2.161000000     0.434000000     1.227000000
C    -1.151000000     0.858000000    -0.618000000
C    -2.222000000     1.787000000    -1.222000000
O    -3.327000000     1.434000000    -1.361000000
O    -1.867000000     2.884000000    -1.632000000
