17
-98.18456
C     0.177000000     1.118000000     0.862000000
H     0.456000000     1.932000000     1.526000000
C     0.875000000    -0.077000000     0.911000000
H     1.637000000    -0.215000000     1.674000000
C     0.665000000    -1.076000000    -0.061000000
C     1.545000000    -2.264000000     0.103000000
H     1.137000000    -2.827000000     0.945000000
H     1.531000000    -2.825000000    -0.834000000
H     2.535000000    -2.051000000     0.510000000
C    -0.323000000    -0.893000000    -1.016000000
H    -0.574000000    -1.641000000    -1.764000000
C    -1.108000000     0.311000000    -1.012000000
H    -1.930000000     0.413000000    -1.715000000
C    -0.851000000     1.303000000    -0.038000000
C    -1.710000000     2.566000000    -0.030000000
O    -2.733000000     2.703000000    -0.691000000
O    -1.337000000     3.529000000     0.638000000
