17
-97.05002
C     0.150000000     1.496000000    -0.100000000
H     0.183000000     2.583000000    -0.082000000
C     1.071000000     0.628000000     0.456000000
H     1.921000000     1.082000000     0.961000000
C     0.879000000    -0.711000000     0.422000000
C     1.778000000    -1.669000000     1.204000000
H     2.549000000    -1.098000000     1.725000000
H     1.252000000    -2.242000000     1.970000000
H     2.322000000    -2.312000000     0.508000000
C    -0.226000000    -1.276000000    -0.228000000
H    -0.367000000    -2.353000000    -0.213000000
C    -1.124000000    -0.436000000    -0.816000000
H    -2.025000000    -0.919000000    -1.187000000
C    -1.001000000     0.934000000    -0.738000000
C    -2.121000000     1.865000000    -1.184000000
O    -3.037000000     1.390000000    -1.854000000
O    -2.210000000     3.030000000    -0.838000000
