17
-95.92281
C     0.613000000     1.369000000    -0.212000000
H     1.251000000     2.194000000    -0.519000000
C     1.342000000     0.185000000    -0.171000000
H     2.377000000     0.172000000    -0.502000000
C     0.679000000    -1.037000000     0.097000000
C     1.426000000    -2.310000000     0.071000000
H     2.477000000    -2.150000000     0.317000000
H     0.984000000    -2.993000000     0.799000000
H     1.383000000    -2.709000000    -0.945000000
C    -0.665000000    -1.079000000     0.395000000
H    -1.168000000    -2.007000000     0.657000000
C    -1.412000000     0.152000000     0.304000000
H    -2.490000000     0.139000000     0.445000000
C    -0.814000000     1.363000000    -0.025000000
C    -1.767000000     2.579000000    -0.162000000
O    -3.006000000     2.510000000    -0.220000000
O    -1.203000000     3.627000000    -0.327000000
