17
-100.66156
C     0.301000000     1.389000000    -0.516000000
H     0.583000000     2.405000000    -0.780000000
C     1.269000000     0.499000000    -0.055000000
H     2.331000000     0.710000000     0.047000000
C     0.870000000    -0.787000000     0.384000000
C     1.785000000    -1.770000000     0.996000000
H     1.633000000    -2.737000000     0.512000000
H     2.804000000    -1.525000000     0.688000000
H     1.752000000    -1.804000000     2.087000000
C    -0.458000000    -1.144000000     0.320000000
H    -0.815000000    -2.085000000     0.729000000
C    -1.439000000    -0.246000000    -0.160000000
H    -2.501000000    -0.478000000    -0.179000000
C    -1.015000000     0.964000000    -0.626000000
C    -2.084000000     1.932000000    -1.028000000
O    -3.221000000     1.506000000    -1.205000000
O    -1.799000000     3.168000000    -1.219000000
