17
-100.84710
C     0.208000000     1.411000000     0.416000000
H     0.518000000     2.396000000     0.756000000
C     1.223000000     0.409000000     0.380000000
H     2.235000000     0.660000000     0.688000000
C     0.883000000    -0.896000000    -0.019000000
C     1.873000000    -2.002000000    -0.056000000
H     2.412000000    -2.063000000     0.892000000
H     1.437000000    -2.993000000    -0.199000000
H     2.381000000    -1.929000000    -1.020000000
C    -0.453000000    -1.173000000    -0.341000000
H    -0.710000000    -2.223000000    -0.457000000
C    -1.423000000    -0.134000000    -0.347000000
H    -2.421000000    -0.476000000    -0.607000000
C    -1.113000000     1.163000000     0.020000000
C    -2.129000000     2.319000000     0.023000000
O    -3.308000000     2.112000000    -0.404000000
O    -1.616000000     3.425000000     0.272000000
