17
-97.44584
C    -0.040000000     1.190000000     0.877000000
H     0.062000000     2.088000000     1.480000000
C     1.091000000     0.639000000     0.282000000
H     2.033000000     1.175000000     0.368000000
C     1.006000000    -0.586000000    -0.451000000
C     2.204000000    -1.015000000    -1.204000000
H     2.202000000    -0.490000000    -2.161000000
H     3.141000000    -0.902000000    -0.654000000
H     2.136000000    -2.058000000    -1.522000000
C    -0.194000000    -1.165000000    -0.646000000
H    -0.209000000    -2.112000000    -1.180000000
C    -1.393000000    -0.527000000    -0.113000000
H    -2.357000000    -0.958000000    -0.371000000
C    -1.280000000     0.615000000     0.659000000
C    -2.466000000     1.226000000     1.321000000
O    -3.594000000     0.823000000     1.068000000
O    -2.345000000     2.065000000     2.242000000
