17
-80.97751
C    -0.315000000     1.122000000     1.011000000
H    -0.426000000     1.902000000     1.760000000
C     0.239000000    -0.126000000     1.322000000
H     0.426000000    -0.445000000     2.344000000
C     0.515000000    -1.052000000     0.342000000
C     0.964000000    -2.402000000     0.746000000
H     1.924000000    -2.425000000     1.265000000
H     0.236000000    -3.077000000     1.201000000
H     1.272000000    -2.904000000    -0.173000000
C     0.328000000    -0.776000000    -1.009000000
H     0.476000000    -1.589000000    -1.715000000
C    -0.141000000     0.540000000    -1.361000000
H    -0.405000000     0.621000000    -2.412000000
C    -0.513000000     1.471000000    -0.377000000
C    -1.328000000     2.708000000    -0.840000000
O    -1.410000000     2.964000000    -1.997000000
O    -1.842000000     3.464000000    -0.099000000
