17
-90.00382
C    -0.781000000    -0.156000000     1.198000000
H    -1.284000000    -0.323000000     2.146000000
C     0.561000000    -0.615000000     1.081000000
H     1.063000000    -1.170000000     1.869000000
C     1.207000000    -0.304000000    -0.109000000
C     2.688000000    -0.603000000    -0.311000000
H     2.890000000    -1.555000000     0.186000000
H     2.853000000    -0.693000000    -1.387000000
H     3.349000000     0.186000000     0.055000000
C     0.421000000     0.187000000    -1.200000000
H     0.926000000     0.280000000    -2.158000000
C    -0.924000000     0.413000000    -1.057000000
H    -1.547000000     0.684000000    -1.906000000
C    -1.537000000     0.387000000     0.151000000
C    -2.929000000     0.854000000     0.397000000
O    -3.684000000     1.288000000    -0.484000000
O    -3.274000000     1.143000000     1.528000000
