17
-96.59215
C     0.295000000    -1.324000000     0.658000000
H     0.641000000    -2.232000000     1.145000000
C     1.190000000    -0.516000000    -0.056000000
H     2.254000000    -0.679000000     0.098000000
C     0.827000000     0.684000000    -0.612000000
C     1.861000000     1.618000000    -1.185000000
H     2.816000000     1.127000000    -1.386000000
H     1.564000000     2.115000000    -2.110000000
H     2.068000000     2.395000000    -0.445000000
C    -0.519000000     1.047000000    -0.500000000
H    -0.716000000     2.053000000    -0.863000000
C    -1.492000000     0.235000000     0.065000000
H    -2.504000000     0.630000000     0.009000000
C    -1.093000000    -0.951000000     0.675000000
C    -2.103000000    -1.854000000     1.386000000
O    -3.216000000    -1.350000000     1.454000000
O    -1.878000000    -2.999000000     1.672000000
