17
-91.97380
C     0.288000000    -0.681000000     1.328000000
H     0.613000000    -0.775000000     2.361000000
C     1.144000000     0.151000000     0.582000000
H     2.121000000     0.516000000     0.889000000
C     0.832000000     0.583000000    -0.669000000
C     1.676000000     1.559000000    -1.397000000
H     1.341000000     1.725000000    -2.423000000
H     1.787000000     2.540000000    -0.929000000
H     2.683000000     1.186000000    -1.596000000
C    -0.375000000     0.121000000    -1.267000000
H    -0.538000000     0.343000000    -2.318000000
C    -1.283000000    -0.610000000    -0.476000000
H    -2.258000000    -0.870000000    -0.879000000
C    -1.006000000    -0.957000000     0.829000000
C    -2.094000000    -1.491000000     1.715000000
O    -3.241000000    -1.633000000     1.400000000
O    -1.689000000    -1.701000000     2.842000000
