17
-90.53797
C    -0.578000000     1.170000000     0.620000000
H    -0.900000000     2.094000000     1.094000000
C     0.725000000     0.796000000     0.625000000
H     1.469000000     1.324000000     1.216000000
C     1.185000000    -0.307000000    -0.091000000
C     2.638000000    -0.554000000    -0.255000000
H     3.142000000     0.114000000     0.446000000
H     2.964000000    -1.572000000    -0.029000000
H     2.906000000    -0.145000000    -1.231000000
C     0.277000000    -1.183000000    -0.612000000
H     0.665000000    -2.079000000    -1.089000000
C    -1.124000000    -0.823000000    -0.576000000
H    -1.801000000    -1.495000000    -1.098000000
C    -1.499000000     0.359000000     0.087000000
C    -2.951000000     0.681000000     0.237000000
O    -3.818000000    -0.066000000    -0.170000000
O    -3.293000000     1.691000000     0.826000000
