17
-97.95455
C     0.241000000     1.209000000     0.796000000
H     0.458000000     2.015000000     1.492000000
C     0.606000000    -0.109000000     1.132000000
H     1.063000000    -0.262000000     2.107000000
C     0.368000000    -1.193000000     0.283000000
C     0.855000000    -2.521000000     0.633000000
H    -0.038000000    -3.075000000     0.930000000
H     1.415000000    -3.100000000    -0.104000000
H     1.439000000    -2.493000000     1.556000000
C    -0.242000000    -0.928000000    -0.933000000
H    -0.408000000    -1.711000000    -1.668000000
C    -0.618000000     0.433000000    -1.292000000
H    -1.127000000     0.614000000    -2.235000000
C    -0.425000000     1.496000000    -0.398000000
C    -1.005000000     2.861000000    -0.703000000
O    -1.940000000     2.886000000    -1.469000000
O    -0.647000000     3.871000000    -0.123000000
