17
-96.09102
C    -1.420000000     0.454000000     0.315000000
H    -2.375000000     0.821000000     0.681000000
C    -0.280000000     0.584000000     1.162000000
H    -0.381000000     1.013000000     2.156000000
C     0.961000000     0.171000000     0.752000000
C     2.239000000     0.235000000     1.586000000
H     3.068000000     0.412000000     0.897000000
H     2.249000000     1.061000000     2.300000000
H     2.345000000    -0.694000000     2.150000000
C     1.089000000    -0.327000000    -0.554000000
H     2.076000000    -0.691000000    -0.830000000
C     0.004000000    -0.528000000    -1.334000000
H     0.083000000    -0.857000000    -2.366000000
C    -1.318000000    -0.250000000    -0.882000000
C    -2.453000000    -0.437000000    -1.790000000
O    -2.338000000    -1.037000000    -2.805000000
O    -3.542000000     0.070000000    -1.438000000
