17
-93.96602
C    -0.875000000     0.590000000     1.031000000
H    -1.503000000     1.092000000     1.763000000
C     0.514000000     0.769000000     0.946000000
H     1.006000000     1.445000000     1.641000000
C     1.216000000     0.196000000    -0.093000000
C     2.707000000     0.326000000    -0.081000000
H     3.156000000    -0.472000000     0.515000000
H     3.079000000     0.385000000    -1.105000000
H     2.961000000     1.268000000     0.409000000
C     0.556000000    -0.608000000    -0.998000000
H     1.109000000    -1.116000000    -1.784000000
C    -0.805000000    -0.895000000    -0.912000000
H    -1.277000000    -1.444000000    -1.722000000
C    -1.563000000    -0.177000000     0.060000000
C    -3.093000000    -0.379000000     0.095000000
O    -3.580000000    -0.649000000    -0.935000000
O    -3.603000000    -0.327000000     1.165000000
