17
-92.41056
C    -1.193000000     0.940000000     0.160000000
H    -2.024000000     1.589000000     0.422000000
C     0.073000000     1.134000000     0.741000000
H     0.234000000     1.895000000     1.500000000
C     1.118000000     0.207000000     0.442000000
C     2.477000000     0.191000000     1.224000000
H     2.713000000     1.242000000     1.405000000
H     2.362000000    -0.382000000     2.146000000
H     3.293000000    -0.190000000     0.607000000
C     0.928000000    -0.858000000    -0.471000000
H     1.767000000    -1.549000000    -0.493000000
C    -0.346000000    -1.027000000    -1.039000000
H    -0.586000000    -1.869000000    -1.683000000
C    -1.386000000    -0.181000000    -0.664000000
C    -2.790000000    -0.319000000    -1.261000000
O    -2.973000000    -1.178000000    -2.134000000
O    -3.664000000     0.355000000    -0.894000000
