17
-93.26151
C    -0.998000000    -0.723000000     0.900000000
H    -1.533000000    -1.452000000     1.503000000
C     0.368000000    -0.575000000     1.163000000
H     0.879000000    -1.094000000     1.970000000
C     1.167000000     0.211000000     0.339000000
C     2.688000000     0.171000000     0.307000000
H     2.938000000    -0.884000000     0.441000000
H     3.073000000     0.488000000    -0.664000000
H     3.173000000     0.720000000     1.118000000
C     0.617000000     0.690000000    -0.815000000
H     1.264000000     1.286000000    -1.453000000
C    -0.724000000     0.621000000    -1.079000000
H    -1.067000000     1.116000000    -1.984000000
C    -1.577000000    -0.019000000    -0.164000000
C    -3.055000000    -0.119000000    -0.409000000
O    -3.450000000     0.207000000    -1.560000000
O    -3.766000000    -0.642000000     0.395000000
