17
-95.32228
C    -1.323000000     0.555000000    -0.182000000
H    -2.204000000     1.186000000    -0.265000000
C    -0.448000000     0.889000000     0.825000000
H    -0.700000000     1.696000000     1.508000000
C     0.741000000     0.207000000     0.952000000
C     1.751000000     0.796000000     1.901000000
H     2.428000000     0.001000000     2.222000000
H     2.306000000     1.654000000     1.518000000
H     1.296000000     1.106000000     2.844000000
C     1.140000000    -0.835000000     0.020000000
H     2.036000000    -1.450000000     0.004000000
C     0.234000000    -1.051000000    -0.986000000
H     0.482000000    -1.805000000    -1.728000000
C    -0.999000000    -0.436000000    -1.100000000
C    -1.963000000    -0.748000000    -2.215000000
O    -1.804000000    -1.738000000    -2.892000000
O    -2.970000000    -0.031000000    -2.431000000
