17
-95.11352
C    -1.193000000     0.338000000     0.872000000
H    -2.052000000     0.658000000     1.457000000
C     0.071000000     0.893000000     0.945000000
H     0.192000000     1.762000000     1.586000000
C     1.136000000     0.525000000     0.178000000
C     2.613000000     1.062000000     0.201000000
H     2.665000000     2.090000000     0.566000000
H     3.160000000     0.414000000     0.889000000
H     3.045000000     1.009000000    -0.800000000
C     0.790000000    -0.422000000    -0.825000000
H     1.637000000    -0.656000000    -1.465000000
C    -0.429000000    -1.004000000    -0.962000000
H    -0.593000000    -1.729000000    -1.755000000
C    -1.487000000    -0.575000000    -0.117000000
C    -2.822000000    -1.276000000    -0.215000000
O    -3.082000000    -2.003000000    -1.200000000
O    -3.649000000    -1.090000000     0.647000000
