17
-91.76041
C    -0.717000000    -0.958000000     0.898000000
H    -1.136000000    -1.574000000     1.690000000
C     0.498000000    -0.291000000     1.202000000
H     0.894000000    -0.314000000     2.214000000
C     1.137000000     0.451000000     0.188000000
C     2.225000000     1.448000000     0.581000000
H     2.307000000     2.270000000    -0.132000000
H     2.055000000     1.871000000     1.573000000
H     3.185000000     0.928000000     0.611000000
C     0.509000000     0.673000000    -1.030000000
H     0.996000000     1.365000000    -1.713000000
C    -0.679000000     0.069000000    -1.329000000
H    -1.137000000     0.132000000    -2.312000000
C    -1.265000000    -0.859000000    -0.403000000
C    -2.599000000    -1.611000000    -0.656000000
O    -3.249000000    -1.259000000    -1.576000000
O    -3.016000000    -2.348000000     0.200000000
