17
-94.57577
C    -0.926000000    -0.305000000     1.145000000
H    -1.474000000    -0.616000000     2.031000000
C     0.405000000    -0.037000000     1.288000000
H     0.911000000    -0.015000000     2.250000000
C     1.159000000     0.355000000     0.189000000
C     2.595000000     0.789000000     0.326000000
H     2.897000000     1.165000000    -0.653000000
H     2.808000000     1.600000000     1.026000000
H     3.209000000    -0.071000000     0.600000000
C     0.602000000     0.294000000    -1.106000000
H     1.083000000     0.548000000    -2.047000000
C    -0.687000000    -0.102000000    -1.259000000
H    -1.083000000    -0.201000000    -2.267000000
C    -1.497000000    -0.408000000    -0.147000000
C    -2.951000000    -0.862000000    -0.381000000
O    -3.459000000    -0.660000000    -1.446000000
O    -3.591000000    -1.480000000     0.452000000
