17
-95.90901
C    -1.135000000     0.586000000     0.845000000
H    -1.856000000     1.056000000     1.509000000
C     0.235000000     0.865000000     0.993000000
H     0.605000000     1.640000000     1.660000000
C     1.185000000     0.227000000     0.184000000
C     2.604000000     0.781000000     0.018000000
H     2.979000000     0.685000000    -1.002000000
H     2.672000000     1.866000000     0.117000000
H     3.279000000     0.267000000     0.706000000
C     0.809000000    -0.691000000    -0.794000000
H     1.482000000    -1.059000000    -1.564000000
C    -0.533000000    -1.080000000    -0.800000000
H    -0.821000000    -1.853000000    -1.506000000
C    -1.473000000    -0.410000000    -0.053000000
C    -2.977000000    -0.833000000    -0.084000000
O    -3.302000000    -1.539000000    -1.002000000
O    -3.750000000    -0.500000000     0.780000000
