17
-80.72421
C    -0.884000000    -0.058000000     1.182000000
H    -1.493000000    -0.031000000     2.082000000
C     0.482000000     0.244000000     1.248000000
H     1.040000000     0.659000000     2.083000000
C     1.140000000     0.310000000     0.034000000
C     2.632000000     0.675000000    -0.072000000
H     3.190000000     0.375000000     0.818000000
H     3.191000000     0.206000000    -0.884000000
H     2.794000000     1.739000000    -0.258000000
C     0.475000000     0.045000000    -1.133000000
H     0.965000000     0.115000000    -2.101000000
C    -0.813000000    -0.356000000    -1.170000000
H    -1.208000000    -0.759000000    -2.100000000
C    -1.528000000    -0.332000000     0.004000000
C    -2.943000000    -0.821000000     0.068000000
O    -3.586000000    -0.962000000    -0.907000000
O    -3.452000000    -1.046000000     1.107000000
