17
-99.66597
C    -0.288000000     1.288000000     0.700000000
H    -0.400000000     2.154000000     1.346000000
C    -0.397000000     0.011000000     1.271000000
H    -0.783000000    -0.080000000     2.283000000
C    -0.011000000    -1.129000000     0.558000000
C    -0.096000000    -2.483000000     1.140000000
H    -0.281000000    -3.239000000     0.375000000
H     0.942000000    -2.669000000     1.424000000
H    -0.614000000    -2.466000000     2.101000000
C     0.362000000    -0.985000000    -0.774000000
H     0.597000000    -1.834000000    -1.410000000
C     0.395000000     0.298000000    -1.364000000
H     0.652000000     0.345000000    -2.420000000
C     0.082000000     1.424000000    -0.652000000
C    -0.012000000     2.796000000    -1.348000000
O    -0.230000000     2.805000000    -2.570000000
O     0.087000000     3.767000000    -0.656000000
