17
-99.03784
C    -1.378000000     0.089000000     0.635000000
H    -2.216000000     0.133000000     1.326000000
C    -0.245000000     0.916000000     0.943000000
H    -0.293000000     1.676000000     1.718000000
C     0.951000000     0.776000000     0.189000000
C     2.109000000     1.562000000     0.652000000
H     2.674000000     1.029000000     1.419000000
H     2.815000000     1.674000000    -0.173000000
H     1.848000000     2.566000000     0.992000000
C     1.037000000    -0.172000000    -0.824000000
H     1.940000000    -0.269000000    -1.421000000
C    -0.080000000    -0.988000000    -1.138000000
H     0.006000000    -1.708000000    -1.948000000
C    -1.246000000    -0.908000000    -0.376000000
C    -2.358000000    -1.852000000    -0.636000000
O    -2.113000000    -2.891000000    -1.202000000
O    -3.456000000    -1.628000000    -0.149000000
