17
-97.13181
C    -1.294000000    -0.470000000     0.593000000
H    -2.244000000    -0.687000000     1.075000000
C    -0.626000000     0.701000000     0.872000000
H    -0.983000000     1.495000000     1.523000000
C     0.562000000     1.080000000     0.187000000
C     1.114000000     2.465000000     0.414000000
H     1.675000000     2.497000000     1.350000000
H     1.871000000     2.709000000    -0.334000000
H     0.311000000     3.202000000     0.346000000
C     1.095000000     0.229000000    -0.792000000
H     2.082000000     0.413000000    -1.208000000
C     0.543000000    -1.078000000    -0.933000000
H     1.024000000    -1.886000000    -1.478000000
C    -0.679000000    -1.387000000    -0.340000000
C    -1.335000000    -2.744000000    -0.427000000
O    -0.889000000    -3.532000000    -1.215000000
O    -2.220000000    -3.004000000     0.364000000
