17
-93.03794
C    -1.431000000     0.167000000     0.448000000
H    -2.425000000     0.422000000     0.805000000
C    -0.690000000     1.105000000    -0.337000000
H    -1.147000000     2.046000000    -0.633000000
C     0.623000000     0.729000000    -0.718000000
C     1.499000000     1.756000000    -1.392000000
H     1.039000000     2.574000000    -1.950000000
H     2.137000000     2.320000000    -0.708000000
H     2.233000000     1.371000000    -2.102000000
C     1.242000000    -0.391000000    -0.178000000
H     2.305000000    -0.495000000    -0.379000000
C     0.437000000    -1.342000000     0.430000000
H     0.904000000    -2.263000000     0.771000000
C    -0.902000000    -1.068000000     0.764000000
C    -1.720000000    -2.048000000     1.521000000
O    -1.331000000    -3.170000000     1.620000000
O    -2.767000000    -1.721000000     2.045000000
