17
-96.57679
C    -0.114000000    -1.435000000    -0.331000000
H    -0.214000000    -2.488000000    -0.579000000
C     0.834000000    -0.522000000    -0.764000000
H     1.506000000    -0.712000000    -1.597000000
C     0.874000000     0.823000000    -0.386000000
C     1.963000000     1.672000000    -0.943000000
H     2.052000000     2.702000000    -0.594000000
H     2.896000000     1.115000000    -1.047000000
H     1.730000000     1.731000000    -2.008000000
C    -0.099000000     1.271000000     0.528000000
H    -0.173000000     2.319000000     0.809000000
C    -1.002000000     0.344000000     1.062000000
H    -1.662000000     0.669000000     1.863000000
C    -1.153000000    -0.965000000     0.515000000
C    -2.200000000    -1.938000000     1.032000000
O    -2.688000000    -1.688000000     2.129000000
O    -2.543000000    -2.893000000     0.308000000
