17
-98.70634
C    -1.291000000    -0.459000000     0.271000000
H    -2.281000000    -0.684000000     0.659000000
C    -0.904000000     0.842000000     0.461000000
H    -1.525000000     1.582000000     0.959000000
C     0.385000000     1.185000000     0.071000000
C     0.853000000     2.595000000     0.424000000
H     1.873000000     2.437000000     0.782000000
H     0.731000000     3.214000000    -0.467000000
H     0.258000000     3.056000000     1.215000000
C     1.204000000     0.192000000    -0.544000000
H     2.192000000     0.480000000    -0.896000000
C     0.753000000    -1.112000000    -0.726000000
H     1.381000000    -1.895000000    -1.143000000
C    -0.502000000    -1.459000000    -0.267000000
C    -0.947000000    -2.923000000    -0.311000000
O    -0.304000000    -3.754000000    -0.924000000
O    -1.868000000    -3.291000000     0.432000000
