17
-96.58049
C    -1.441000000    -0.087000000     0.284000000
H    -2.519000000    -0.038000000     0.415000000
C    -0.885000000    -0.509000000    -0.926000000
H    -1.458000000    -0.801000000    -1.802000000
C     0.495000000    -0.416000000    -0.995000000
C     1.163000000    -0.943000000    -2.193000000
H     2.154000000    -0.530000000    -2.392000000
H     1.414000000    -2.004000000    -2.130000000
H     0.506000000    -0.812000000    -3.056000000
C     1.322000000     0.070000000     0.017000000
H     2.394000000     0.141000000    -0.152000000
C     0.736000000     0.560000000     1.231000000
H     1.379000000     0.940000000     2.021000000
C    -0.678000000     0.509000000     1.303000000
C    -1.313000000     1.138000000     2.474000000
O    -0.851000000     2.099000000     3.065000000
O    -2.410000000     0.682000000     2.841000000
