17
-95.05997
C    -1.380000000    -0.513000000     0.024000000
H    -2.434000000    -0.759000000    -0.067000000
C    -0.622000000    -0.114000000    -1.127000000
H    -1.130000000     0.048000000    -2.074000000
C     0.654000000     0.295000000    -1.005000000
C     1.470000000     0.532000000    -2.226000000
H     2.528000000     0.479000000    -1.958000000
H     1.208000000    -0.231000000    -2.962000000
H     1.202000000     1.516000000    -2.616000000
C     1.310000000     0.291000000     0.271000000
H     2.363000000     0.558000000     0.219000000
C     0.523000000    -0.032000000     1.391000000
H     0.925000000     0.129000000     2.388000000
C    -0.847000000    -0.330000000     1.266000000
C    -1.683000000    -0.521000000     2.489000000
O    -1.168000000    -0.699000000     3.588000000
O    -2.917000000    -0.646000000     2.394000000
