17
-96.75144
C    -0.601000000    -1.197000000     0.533000000
H    -1.124000000    -2.132000000     0.717000000
C     0.433000000    -1.184000000    -0.432000000
H     0.793000000    -2.157000000    -0.757000000
C     0.986000000     0.019000000    -0.751000000
C     2.229000000    -0.043000000    -1.572000000
H     3.040000000    -0.629000000    -1.136000000
H     2.010000000    -0.336000000    -2.601000000
H     2.606000000     0.982000000    -1.582000000
C     0.329000000     1.199000000    -0.410000000
H     0.630000000     2.180000000    -0.770000000
C    -0.785000000     1.214000000     0.464000000
H    -1.228000000     2.148000000     0.799000000
C    -1.184000000    -0.007000000     0.999000000
C    -2.425000000    -0.024000000     1.893000000
O    -2.809000000     1.050000000     2.324000000
O    -2.893000000    -1.083000000     2.289000000
