17
-89.62260
C    -0.633000000    -1.303000000     0.566000000
H    -1.001000000    -2.220000000     1.019000000
C     0.093000000    -1.200000000    -0.648000000
H     0.443000000    -2.041000000    -1.241000000
C     0.633000000     0.022000000    -1.104000000
C     1.570000000     0.260000000    -2.284000000
H     2.564000000     0.579000000    -1.962000000
H     1.670000000    -0.680000000    -2.831000000
H     1.188000000     1.022000000    -2.966000000
C     0.355000000     1.164000000    -0.320000000
H     0.731000000     2.112000000    -0.696000000
C    -0.400000000     1.073000000     0.894000000
H    -0.563000000     1.999000000     1.439000000
C    -0.824000000    -0.185000000     1.349000000
C    -1.645000000    -0.201000000     2.599000000
O    -2.081000000     0.816000000     3.168000000
O    -2.105000000    -1.224000000     3.019000000
