17
-95.92452
C    -0.635000000    -1.244000000     0.594000000
H    -1.181000000    -2.138000000     0.884000000
C    -0.071000000    -1.181000000    -0.671000000
H    -0.155000000    -2.067000000    -1.294000000
C     0.483000000     0.042000000    -1.121000000
C     1.380000000     0.110000000    -2.351000000
H     1.777000000     1.093000000    -2.612000000
H     2.290000000    -0.479000000    -2.217000000
H     0.821000000    -0.291000000    -3.198000000
C     0.492000000     1.148000000    -0.353000000
H     0.932000000     2.092000000    -0.663000000
C    -0.125000000     1.125000000     0.905000000
H    -0.163000000     2.010000000     1.534000000
C    -0.732000000    -0.047000000     1.405000000
C    -1.532000000    -0.076000000     2.703000000
O    -1.585000000     0.984000000     3.313000000
O    -2.004000000    -1.081000000     3.141000000
