17
-88.13438
C    -0.680000000    -1.335000000    -0.162000000
H    -1.163000000    -2.264000000    -0.454000000
C    -0.179000000    -0.471000000    -1.200000000
H    -0.257000000    -0.894000000    -2.198000000
C     0.423000000     0.697000000    -0.905000000
C     1.028000000     1.541000000    -2.033000000
H     0.978000000     2.631000000    -1.979000000
H     2.093000000     1.360000000    -2.193000000
H     0.466000000     1.231000000    -2.917000000
C     0.553000000     1.060000000     0.401000000
H     1.074000000     1.996000000     0.580000000
C     0.207000000     0.249000000     1.433000000
H     0.176000000     0.639000000     2.447000000
C    -0.558000000    -0.884000000     1.172000000
C    -1.200000000    -1.640000000     2.356000000
O    -0.843000000    -1.519000000     3.524000000
O    -2.113000000    -2.389000000     2.136000000
