17
-99.80463
C     0.262000000     1.361000000     0.599000000
H     0.522000000     2.238000000     1.186000000
C     0.024000000     0.178000000     1.291000000
H     0.062000000     0.148000000     2.377000000
C    -0.252000000    -0.992000000     0.624000000
C    -0.471000000    -2.282000000     1.359000000
H    -1.244000000    -2.102000000     2.109000000
H    -0.812000000    -3.148000000     0.787000000
H     0.429000000    -2.663000000     1.847000000
C    -0.243000000    -1.029000000    -0.809000000
H    -0.287000000    -2.017000000    -1.261000000
C    -0.086000000     0.172000000    -1.510000000
H    -0.093000000     0.131000000    -2.597000000
C     0.239000000     1.334000000    -0.800000000
C     0.534000000     2.571000000    -1.560000000
O     0.520000000     2.578000000    -2.769000000
O     0.901000000     3.515000000    -0.878000000
