17
-89.74097
C    -0.202000000     1.317000000    -0.559000000
H    -0.375000000     2.384000000    -0.677000000
C    -0.664000000     0.840000000     0.664000000
H    -1.257000000     1.521000000     1.269000000
C    -0.386000000    -0.411000000     1.092000000
C    -0.776000000    -0.772000000     2.441000000
H    -0.602000000     0.105000000     3.067000000
H    -1.800000000    -1.151000000     2.447000000
H    -0.268000000    -1.631000000     2.886000000
C     0.218000000    -1.266000000     0.216000000
H     0.279000000    -2.314000000     0.499000000
C     0.515000000    -0.852000000    -1.096000000
H     1.057000000    -1.581000000    -1.693000000
C     0.383000000     0.471000000    -1.464000000
C     1.141000000     0.971000000    -2.677000000
O     1.760000000     0.227000000    -3.409000000
O     0.979000000     2.142000000    -3.000000000
