17
-96.56393
C     0.399000000     1.349000000    -0.312000000
H     0.798000000     2.352000000    -0.439000000
C     0.673000000     0.648000000     0.828000000
H     1.171000000     1.207000000     1.616000000
C     0.286000000    -0.634000000     1.055000000
C     0.628000000    -1.409000000     2.273000000
H     1.555000000    -1.097000000     2.760000000
H    -0.192000000    -1.153000000     2.947000000
H     0.644000000    -2.490000000     2.121000000
C    -0.368000000    -1.238000000    -0.025000000
H    -0.697000000    -2.266000000     0.108000000
C    -0.750000000    -0.516000000    -1.163000000
H    -1.337000000    -0.977000000    -1.953000000
C    -0.251000000     0.775000000    -1.375000000
C    -0.687000000     1.613000000    -2.528000000
O    -1.089000000     1.038000000    -3.589000000
O    -0.786000000     2.793000000    -2.318000000
