17
-98.51495
C     0.057000000     1.497000000    -0.068000000
H     0.231000000     2.569000000    -0.096000000
C     0.165000000     0.720000000     1.120000000
H     0.193000000     1.161000000     2.113000000
C     0.253000000    -0.678000000     1.028000000
C     0.275000000    -1.535000000     2.241000000
H    -0.711000000    -1.933000000     2.487000000
H     1.017000000    -2.332000000     2.172000000
H     0.591000000    -0.846000000     3.027000000
C     0.090000000    -1.265000000    -0.217000000
H    -0.116000000    -2.324000000    -0.346000000
C    -0.135000000    -0.538000000    -1.396000000
H    -0.381000000    -1.085000000    -2.303000000
C    -0.099000000     0.861000000    -1.279000000
C    -0.426000000     1.672000000    -2.495000000
O    -0.328000000     1.165000000    -3.643000000
O    -0.673000000     2.897000000    -2.342000000
