17
-93.34810
C    -1.378000000    -0.554000000    -0.009000000
H    -2.431000000    -0.825000000    -0.002000000
C    -0.932000000     0.492000000    -0.809000000
H    -1.632000000     1.041000000    -1.434000000
C     0.382000000     0.887000000    -0.780000000
C     0.981000000     1.926000000    -1.672000000
H     1.247000000     2.778000000    -1.043000000
H     1.893000000     1.636000000    -2.198000000
H     0.217000000     2.210000000    -2.399000000
C     1.274000000     0.199000000     0.087000000
H     2.338000000     0.414000000     0.152000000
C     0.845000000    -0.786000000     0.935000000
H     1.564000000    -1.232000000     1.617000000
C    -0.486000000    -1.109000000     0.926000000
C    -1.109000000    -2.148000000     1.881000000
O    -0.532000000    -2.426000000     2.949000000
O    -2.245000000    -2.511000000     1.795000000
