17
-98.18654
C     1.164000000     0.781000000    -0.054000000
H     2.108000000     1.307000000     0.064000000
C     0.855000000    -0.130000000     0.955000000
H     1.589000000    -0.181000000     1.755000000
C    -0.337000000    -0.860000000     0.876000000
C    -0.661000000    -1.914000000     1.922000000
H     0.260000000    -2.234000000     2.416000000
H    -1.262000000    -1.551000000     2.759000000
H    -1.132000000    -2.737000000     1.381000000
C    -1.176000000    -0.598000000    -0.210000000
H    -2.016000000    -1.244000000    -0.453000000
C    -0.856000000     0.339000000    -1.231000000
H    -1.474000000     0.468000000    -2.116000000
C     0.364000000     1.038000000    -1.189000000
C     0.761000000     2.139000000    -2.095000000
O    -0.015000000     2.590000000    -2.940000000
O     1.835000000     2.782000000    -1.841000000
