17
-81.39171
C    -1.311000000     0.409000000     0.473000000
H    -2.271000000     0.654000000     0.919000000
C    -0.878000000    -0.848000000     0.246000000
H    -1.695000000    -1.531000000     0.462000000
C     0.445000000    -1.156000000    -0.108000000
C     0.716000000    -2.620000000    -0.392000000
H     1.785000000    -2.814000000    -0.282000000
H     0.072000000    -3.281000000     0.193000000
H     0.469000000    -2.938000000    -1.407000000
C     1.267000000    -0.122000000    -0.383000000
H     2.254000000    -0.348000000    -0.777000000
C     0.821000000     1.187000000    -0.273000000
H     1.488000000     2.038000000    -0.384000000
C    -0.453000000     1.458000000     0.229000000
C    -0.776000000     2.930000000     0.450000000
O    -0.038000000     3.782000000     0.214000000
O    -1.894000000     3.197000000     0.828000000
