17
-90.38818
C    -1.127000000     0.798000000     0.178000000
H    -2.064000000     1.311000000     0.376000000
C    -1.016000000    -0.524000000     0.631000000
H    -1.757000000    -0.960000000     1.296000000
C     0.186000000    -1.232000000     0.365000000
C     0.319000000    -2.562000000     1.011000000
H     1.379000000    -2.827000000     1.005000000
H    -0.037000000    -2.478000000     2.040000000
H    -0.241000000    -3.299000000     0.431000000
C     1.178000000    -0.547000000    -0.406000000
H     2.100000000    -1.054000000    -0.678000000
C     0.955000000     0.786000000    -0.863000000
H     1.775000000     1.286000000    -1.373000000
C    -0.226000000     1.440000000    -0.599000000
C    -0.433000000     2.851000000    -1.054000000
O     0.482000000     3.565000000    -1.447000000
O    -1.480000000     3.445000000    -0.921000000
