17
-90.23632
C    -1.144000000     0.732000000     0.603000000
H    -1.932000000     1.306000000     1.084000000
C    -0.735000000    -0.549000000     0.968000000
H    -1.243000000    -0.988000000     1.823000000
C     0.362000000    -1.118000000     0.350000000
C     0.748000000    -2.553000000     0.725000000
H     1.653000000    -2.429000000     1.324000000
H    -0.051000000    -2.975000000     1.338000000
H     1.001000000    -3.176000000    -0.135000000
C     1.053000000    -0.410000000    -0.649000000
H     1.890000000    -0.885000000    -1.154000000
C     0.651000000     0.844000000    -0.990000000
H     1.258000000     1.384000000    -1.712000000
C    -0.500000000     1.428000000    -0.419000000
C    -0.843000000     2.821000000    -0.859000000
O    -0.281000000     3.316000000    -1.795000000
O    -1.894000000     3.246000000    -0.509000000
