17
-92.03352
C    -0.933000000     0.513000000     0.985000000
H    -1.746000000     0.631000000     1.697000000
C    -0.170000000    -0.579000000     1.127000000
H    -0.148000000    -1.125000000     2.066000000
C     0.727000000    -0.946000000     0.152000000
C     1.619000000    -2.128000000     0.369000000
H     1.353000000    -2.940000000    -0.311000000
H     2.647000000    -1.781000000     0.247000000
H     1.562000000    -2.559000000     1.371000000
C     0.874000000    -0.167000000    -0.972000000
H     1.694000000    -0.450000000    -1.628000000
C     0.019000000     0.856000000    -1.158000000
H     0.102000000     1.506000000    -2.025000000
C    -0.909000000     1.254000000    -0.179000000
C    -1.987000000     2.325000000    -0.512000000
O    -1.819000000     3.005000000    -1.494000000
O    -2.892000000     2.577000000     0.265000000
