17
-97.78600
C    -1.143000000    -0.290000000     0.983000000
H    -1.935000000    -0.622000000     1.648000000
C    -0.075000000    -1.154000000     0.720000000
H     0.050000000    -2.033000000     1.346000000
C     0.906000000    -0.826000000    -0.266000000
C     2.209000000    -1.566000000    -0.490000000
H     2.229000000    -2.614000000    -0.186000000
H     2.446000000    -1.540000000    -1.555000000
H     2.951000000    -1.039000000     0.114000000
C     0.763000000     0.331000000    -0.977000000
H     1.420000000     0.561000000    -1.812000000
C    -0.274000000     1.194000000    -0.670000000
H    -0.395000000     2.107000000    -1.246000000
C    -1.279000000     0.893000000     0.316000000
C    -2.367000000     1.892000000     0.584000000
O    -2.539000000     2.852000000    -0.159000000
O    -2.972000000     1.848000000     1.653000000
