17
-91.67983
C    -1.399000000    -0.348000000     0.359000000
H    -2.424000000    -0.586000000     0.630000000
C    -0.371000000    -1.242000000    -0.012000000
H    -0.570000000    -2.299000000    -0.170000000
C     0.935000000    -0.802000000    -0.222000000
C     2.089000000    -1.775000000    -0.639000000
H     1.840000000    -2.312000000    -1.557000000
H     3.047000000    -1.326000000    -0.909000000
H     2.084000000    -2.488000000     0.188000000
C     1.132000000     0.589000000    -0.186000000
H     2.088000000     0.979000000    -0.526000000
C     0.088000000     1.447000000     0.136000000
H     0.350000000     2.499000000     0.222000000
C    -1.176000000     1.018000000     0.360000000
C    -2.275000000     1.956000000     0.692000000
O    -2.322000000     3.028000000     0.126000000
O    -3.119000000     1.668000000     1.506000000
