17
-99.27195
C    -1.381000000    -0.440000000    -0.409000000
H    -2.345000000    -0.919000000    -0.559000000
C    -0.223000000    -1.236000000    -0.513000000
H    -0.295000000    -2.284000000    -0.794000000
C     1.043000000    -0.690000000    -0.211000000
C     2.261000000    -1.466000000    -0.244000000
H     2.680000000    -1.521000000    -1.250000000
H     3.024000000    -1.202000000     0.493000000
H     2.110000000    -2.476000000     0.143000000
C     1.122000000     0.655000000     0.211000000
H     2.053000000     1.201000000     0.334000000
C    -0.051000000     1.365000000     0.392000000
H     0.003000000     2.405000000     0.706000000
C    -1.316000000     0.868000000     0.132000000
C    -2.557000000     1.726000000     0.427000000
O    -2.489000000     2.849000000     0.887000000
O    -3.643000000     1.169000000     0.261000000
