17
-89.42680
C    -1.043000000    -0.955000000    -0.593000000
H    -1.630000000    -1.628000000    -1.214000000
C     0.172000000    -0.572000000    -1.204000000
H     0.454000000    -1.024000000    -2.151000000
C     1.051000000     0.323000000    -0.574000000
C     2.308000000     0.679000000    -1.223000000
H     3.108000000     0.375000000    -0.545000000
H     2.344000000     0.112000000    -2.156000000
H     2.309000000     1.750000000    -1.435000000
C     0.664000000     0.925000000     0.582000000
H     1.296000000     1.645000000     1.096000000
C    -0.483000000     0.553000000     1.231000000
H    -0.647000000     0.935000000     2.236000000
C    -1.354000000    -0.378000000     0.695000000
C    -2.499000000    -0.825000000     1.559000000
O    -2.885000000    -0.193000000     2.530000000
O    -3.168000000    -1.728000000     1.158000000
