17
-84.66622
C    -1.289000000     0.407000000    -0.746000000
H    -2.111000000     0.679000000    -1.403000000
C    -0.188000000    -0.246000000    -1.274000000
H    -0.114000000    -0.484000000    -2.332000000
C     0.958000000    -0.543000000    -0.516000000
C     2.221000000    -1.201000000    -1.068000000
H     2.946000000    -0.385000000    -1.021000000
H     2.509000000    -2.052000000    -0.448000000
H     2.099000000    -1.510000000    -2.109000000
C     0.992000000    -0.182000000     0.757000000
H     1.960000000    -0.370000000     1.215000000
C    -0.127000000     0.452000000     1.337000000
H    -0.026000000     0.757000000     2.376000000
C    -1.281000000     0.784000000     0.574000000
C    -2.482000000     1.296000000     1.329000000
O    -2.517000000     1.396000000     2.559000000
O    -3.547000000     1.200000000     0.775000000
