17
-99.24746
C    -1.251000000    -0.627000000    -0.644000000
H    -2.110000000    -1.089000000    -1.124000000
C     0.113000000    -0.875000000    -1.006000000
H     0.333000000    -1.571000000    -1.811000000
C     1.161000000    -0.335000000    -0.296000000
C     2.602000000    -0.603000000    -0.609000000
H     2.679000000    -1.030000000    -1.611000000
H     3.242000000     0.281000000    -0.587000000
H     3.019000000    -1.320000000     0.102000000
C     0.848000000     0.672000000     0.635000000
H     1.679000000     1.221000000     1.071000000
C    -0.480000000     0.981000000     1.013000000
H    -0.635000000     1.821000000     1.686000000
C    -1.495000000     0.320000000     0.379000000
C    -2.852000000     0.648000000     0.848000000
O    -3.077000000     1.376000000     1.791000000
O    -3.780000000     0.128000000     0.167000000
