17
-93.57847
C    -1.220000000    -0.770000000    -0.411000000
H    -2.000000000    -1.390000000    -0.845000000
C     0.021000000    -0.735000000    -1.118000000
H     0.291000000    -1.356000000    -1.969000000
C     0.985000000     0.189000000    -0.753000000
C     2.411000000     0.061000000    -1.251000000
H     3.229000000     0.038000000    -0.529000000
H     2.509000000    -0.949000000    -1.656000000
H     2.580000000     0.844000000    -1.994000000
C     0.793000000     0.998000000     0.340000000
H     1.578000000     1.677000000     0.662000000
C    -0.383000000     0.911000000     1.105000000
H    -0.519000000     1.371000000     2.080000000
C    -1.405000000     0.033000000     0.716000000
C    -2.642000000    -0.218000000     1.594000000
O    -2.761000000     0.412000000     2.642000000
O    -3.468000000    -1.109000000     1.386000000
