17
-97.57652
C    -1.249000000    -0.536000000    -0.673000000
H    -2.055000000    -1.007000000    -1.230000000
C     0.058000000    -0.454000000    -1.263000000
H     0.154000000    -0.869000000    -2.263000000
C     1.119000000     0.110000000    -0.541000000
C     2.427000000     0.441000000    -1.131000000
H     2.434000000     1.429000000    -1.598000000
H     3.293000000     0.317000000    -0.479000000
H     2.668000000    -0.256000000    -1.937000000
C     0.899000000     0.406000000     0.798000000
H     1.655000000     0.971000000     1.338000000
C    -0.302000000     0.177000000     1.423000000
H    -0.427000000     0.628000000     2.404000000
C    -1.377000000    -0.237000000     0.677000000
C    -2.727000000    -0.383000000     1.305000000
O    -2.815000000    -0.568000000     2.543000000
O    -3.756000000    -0.170000000     0.622000000
