17
-96.04505
C    -1.241000000     0.291000000    -0.710000000
H    -2.104000000     0.489000000    -1.340000000
C     0.012000000     0.431000000    -1.262000000
H     0.190000000     0.839000000    -2.254000000
C     1.114000000     0.217000000    -0.400000000
C     2.455000000     0.358000000    -1.082000000
H     3.136000000     0.786000000    -0.343000000
H     2.704000000    -0.644000000    -1.439000000
H     2.395000000     1.073000000    -1.905000000
C     1.000000000    -0.234000000     0.918000000
H     1.873000000    -0.455000000     1.526000000
C    -0.273000000    -0.410000000     1.422000000
H    -0.371000000    -0.863000000     2.405000000
C    -1.413000000    -0.172000000     0.616000000
C    -2.785000000    -0.498000000     1.126000000
O    -2.917000000    -0.768000000     2.294000000
O    -3.769000000    -0.441000000     0.425000000
