17
-94.33832
C    -0.914000000     0.023000000    -1.167000000
H    -1.441000000     0.099000000    -2.115000000
C     0.284000000     0.738000000    -1.105000000
H     0.640000000     1.299000000    -1.964000000
C     1.052000000     0.654000000     0.032000000
C     2.347000000     1.380000000     0.264000000
H     2.218000000     1.941000000     1.192000000
H     3.085000000     0.578000000     0.333000000
H     2.496000000     1.973000000    -0.640000000
C     0.681000000    -0.193000000     1.081000000
H     1.359000000    -0.238000000     1.929000000
C    -0.522000000    -0.858000000     1.021000000
H    -0.851000000    -1.436000000     1.880000000
C    -1.345000000    -0.750000000    -0.117000000
C    -2.649000000    -1.558000000    -0.192000000
O    -3.036000000    -2.263000000     0.703000000
O    -3.407000000    -1.381000000    -1.130000000
