17
-92.87557
C    -0.763000000    -0.416000000    -1.210000000
H    -1.349000000    -0.593000000    -2.108000000
C     0.313000000     0.502000000    -1.161000000
H     0.582000000     1.128000000    -2.008000000
C     0.959000000     0.754000000     0.051000000
C     2.012000000     1.782000000    -0.060000000
H     2.230000000     2.025000000     0.982000000
H     2.866000000     1.329000000    -0.566000000
H     1.760000000     2.745000000    -0.508000000
C     0.652000000     0.100000000     1.212000000
H     1.225000000     0.253000000     2.124000000
C    -0.390000000    -0.861000000     1.183000000
H    -0.716000000    -1.275000000     2.134000000
C    -1.147000000    -1.070000000     0.008000000
C    -2.357000000    -1.955000000    -0.040000000
O    -2.943000000    -2.127000000     1.025000000
O    -2.941000000    -2.317000000    -1.053000000
