17
-96.39376
C    -1.247000000     0.319000000    -0.621000000
H    -2.114000000     0.700000000    -1.155000000
C    -0.112000000     1.079000000    -0.709000000
H    -0.046000000     1.947000000    -1.360000000
C     1.025000000     0.655000000    -0.034000000
C     2.288000000     1.457000000    -0.157000000
H     3.141000000     1.034000000     0.377000000
H     2.622000000     1.574000000    -1.190000000
H     2.113000000     2.475000000     0.196000000
C     1.032000000    -0.499000000     0.745000000
H     1.869000000    -0.754000000     1.390000000
C    -0.139000000    -1.243000000     0.784000000
H    -0.018000000    -2.226000000     1.231000000
C    -1.358000000    -0.820000000     0.164000000
C    -2.677000000    -1.673000000     0.172000000
O    -2.680000000    -2.878000000     0.372000000
O    -3.707000000    -1.143000000    -0.200000000
