17
-91.34243
C    -0.974000000     0.392000000    -1.007000000
H    -1.485000000     0.711000000    -1.913000000
C     0.055000000     1.155000000    -0.565000000
H     0.318000000     2.103000000    -1.025000000
C     0.890000000     0.695000000     0.462000000
C     2.186000000     1.527000000     0.796000000
H     2.718000000     1.834000000    -0.108000000
H     1.931000000     2.522000000     1.169000000
H     2.857000000     1.049000000     1.512000000
C     0.624000000    -0.527000000     0.970000000
H     1.232000000    -0.999000000     1.737000000
C    -0.499000000    -1.287000000     0.661000000
H    -0.539000000    -2.312000000     1.023000000
C    -1.311000000    -0.875000000    -0.422000000
C    -2.396000000    -1.742000000    -0.932000000
O    -2.753000000    -2.726000000    -0.314000000
O    -2.853000000    -1.519000000    -2.043000000
