17
-101.17691
C    -1.348000000    -0.070000000     0.531000000
H    -2.344000000    -0.013000000     0.961000000
C    -0.453000000     0.980000000     0.726000000
H    -0.858000000     1.828000000     1.272000000
C     0.841000000     0.919000000     0.273000000
C     1.863000000     1.999000000     0.487000000
H     1.583000000     2.552000000     1.386000000
H     2.883000000     1.612000000     0.443000000
H     1.828000000     2.627000000    -0.406000000
C     1.175000000    -0.177000000    -0.525000000
H     2.196000000    -0.188000000    -0.899000000
C     0.243000000    -1.191000000    -0.798000000
H     0.566000000    -2.004000000    -1.444000000
C    -1.041000000    -1.158000000    -0.268000000
C    -2.115000000    -2.264000000    -0.482000000
O    -1.669000000    -3.379000000    -0.840000000
O    -3.350000000    -2.067000000    -0.410000000
