17
-94.28791
C    -1.018000000    -0.595000000     0.879000000
H    -1.778000000    -0.917000000     1.587000000
C    -0.773000000     0.775000000     0.715000000
H    -1.373000000     1.586000000     1.119000000
C     0.270000000     1.228000000    -0.078000000
C     0.434000000     2.684000000    -0.326000000
H     1.470000000     2.803000000    -0.650000000
H    -0.301000000     2.934000000    -1.094000000
H     0.278000000     3.306000000     0.558000000
C     1.022000000     0.287000000    -0.792000000
H     1.766000000     0.622000000    -1.510000000
C     0.846000000    -1.110000000    -0.558000000
H     1.495000000    -1.823000000    -1.059000000
C    -0.262000000    -1.526000000     0.230000000
C    -0.564000000    -2.996000000     0.354000000
O    -0.085000000    -3.806000000    -0.459000000
O    -1.419000000    -3.459000000     1.087000000
