17
-82.35702
C     0.658000000    -0.526000000     1.177000000
H     0.955000000    -0.823000000     2.179000000
C    -0.325000000     0.402000000     1.101000000
H    -0.741000000     0.776000000     2.033000000
C    -0.788000000     0.936000000    -0.086000000
C    -1.958000000     1.866000000    -0.044000000
H    -2.524000000     1.638000000     0.862000000
H    -1.636000000     2.902000000    -0.168000000
H    -2.776000000     1.606000000    -0.719000000
C    -0.254000000     0.466000000    -1.254000000
H    -0.625000000     0.859000000    -2.198000000
C     0.708000000    -0.494000000    -1.255000000
H     1.055000000    -0.857000000    -2.220000000
C     1.142000000    -1.096000000    -0.004000000
C     2.054000000    -2.297000000     0.137000000
O     2.564000000    -2.865000000    -0.775000000
O     2.483000000    -2.486000000     1.233000000
