17
-96.25665
C     1.221000000     0.539000000     0.638000000
H     2.020000000     1.103000000     1.112000000
C     0.001000000     1.179000000     0.489000000
H    -0.131000000     2.134000000     0.990000000
C    -1.094000000     0.612000000    -0.125000000
C    -2.393000000     1.322000000    -0.202000000
H    -3.051000000     0.887000000     0.554000000
H    -2.276000000     2.362000000     0.108000000
H    -2.892000000     1.112000000    -1.150000000
C    -0.896000000    -0.682000000    -0.678000000
H    -1.713000000    -1.208000000    -1.164000000
C     0.297000000    -1.424000000    -0.464000000
H     0.309000000    -2.426000000    -0.885000000
C     1.392000000    -0.819000000     0.218000000
C     2.723000000    -1.424000000     0.219000000
O     2.792000000    -2.616000000     0.326000000
O     3.684000000    -0.652000000     0.018000000
