17
-92.26278
C     1.308000000     0.090000000     0.710000000
H     2.284000000     0.386000000     1.086000000
C     0.350000000     1.067000000     0.764000000
H     0.582000000     1.987000000     1.295000000
C    -0.875000000     0.826000000     0.132000000
C    -1.931000000     1.866000000     0.140000000
H    -1.941000000     2.550000000     0.991000000
H    -1.773000000     2.491000000    -0.741000000
H    -2.862000000     1.297000000     0.174000000
C    -1.122000000    -0.325000000    -0.592000000
H    -2.135000000    -0.512000000    -0.939000000
C    -0.164000000    -1.359000000    -0.634000000
H    -0.401000000    -2.337000000    -1.046000000
C     1.098000000    -1.118000000    -0.041000000
C     2.216000000    -2.049000000    -0.287000000
O     1.987000000    -3.197000000    -0.623000000
O     3.377000000    -1.665000000    -0.388000000
