17
-85.94288
C     1.473000000    -0.160000000     0.019000000
H     2.557000000    -0.097000000     0.062000000
C     0.731000000     0.974000000     0.331000000
H     1.304000000     1.886000000     0.477000000
C    -0.645000000     1.026000000     0.227000000
C    -1.456000000     2.289000000     0.483000000
H    -2.460000000     2.150000000     0.890000000
H    -1.009000000     2.932000000     1.244000000
H    -1.558000000     2.914000000    -0.407000000
C    -1.290000000    -0.154000000    -0.068000000
H    -2.372000000    -0.185000000    -0.166000000
C    -0.571000000    -1.302000000    -0.275000000
H    -1.155000000    -2.173000000    -0.561000000
C     0.842000000    -1.371000000    -0.232000000
C     1.618000000    -2.597000000    -0.599000000
O     1.313000000    -3.712000000    -0.329000000
O     2.674000000    -2.428000000    -1.092000000
