17
-93.39348
C     0.754000000    -0.138000000    -1.237000000
H     1.297000000    -0.176000000    -2.178000000
C     0.233000000     1.075000000    -0.801000000
H     0.202000000     1.939000000    -1.461000000
C    -0.470000000     1.063000000     0.371000000
C    -1.261000000     2.229000000     0.768000000
H    -1.189000000     2.367000000     1.849000000
H    -0.790000000     3.071000000     0.258000000
H    -2.291000000     2.013000000     0.477000000
C    -0.487000000    -0.075000000     1.195000000
H    -1.198000000    -0.077000000     2.017000000
C     0.174000000    -1.204000000     0.838000000
H     0.056000000    -2.067000000     1.489000000
C     0.746000000    -1.292000000    -0.453000000
C     1.226000000    -2.587000000    -0.939000000
O     1.341000000    -3.452000000    -0.102000000
O     1.653000000    -2.692000000    -2.087000000
