17
-88.82137
C     0.823000000    -0.484000000    -1.070000000
H     1.318000000    -0.787000000    -1.989000000
C     0.089000000     0.724000000    -1.109000000
H     0.131000000     1.405000000    -1.955000000
C    -0.656000000     1.066000000    -0.011000000
C    -1.500000000     2.270000000    -0.060000000
H    -1.347000000     2.834000000    -0.983000000
H    -2.548000000     2.052000000     0.156000000
H    -1.190000000     2.916000000     0.763000000
C    -0.637000000     0.263000000     1.117000000
H    -1.223000000     0.469000000     2.008000000
C     0.179000000    -0.922000000     1.122000000
H     0.100000000    -1.614000000     1.957000000
C     0.899000000    -1.305000000     0.055000000
C     1.564000000    -2.621000000    -0.029000000
O     1.679000000    -3.362000000     0.960000000
O     2.313000000    -2.897000000    -0.937000000
