17
-98.29946
C     0.589000000    -0.944000000    -0.914000000
H     1.038000000    -1.571000000    -1.680000000
C    -0.409000000    -0.081000000    -1.246000000
H    -0.648000000    -0.049000000    -2.306000000
C    -0.991000000     0.726000000    -0.279000000
C    -2.031000000     1.681000000    -0.645000000
H    -2.856000000     1.618000000     0.067000000
H    -1.627000000     2.695000000    -0.616000000
H    -2.482000000     1.579000000    -1.634000000
C    -0.550000000     0.582000000     1.057000000
H    -0.977000000     1.244000000     1.806000000
C     0.578000000    -0.239000000     1.331000000
H     0.919000000    -0.259000000     2.362000000
C     1.195000000    -0.955000000     0.337000000
C     2.435000000    -1.807000000     0.675000000
O     2.979000000    -1.536000000     1.730000000
O     2.843000000    -2.682000000    -0.043000000
