17
-91.34026
C     0.317000000    -1.428000000     0.182000000
H     0.464000000    -2.505000000     0.186000000
C    -0.805000000    -0.869000000    -0.437000000
H    -1.533000000    -1.500000000    -0.940000000
C    -1.033000000     0.505000000    -0.522000000
C    -2.201000000     0.931000000    -1.333000000
H    -3.142000000     0.604000000    -0.886000000
H    -2.191000000     2.013000000    -1.483000000
H    -2.111000000     0.585000000    -2.364000000
C    -0.106000000     1.323000000    -0.051000000
H    -0.086000000     2.410000000    -0.065000000
C     0.971000000     0.782000000     0.715000000
H     1.733000000     1.473000000     1.066000000
C     1.234000000    -0.598000000     0.781000000
C     2.525000000    -1.096000000     1.467000000
O     3.195000000    -0.345000000     2.159000000
O     2.770000000    -2.279000000     1.526000000
