17
-88.45335
C     1.009000000    -0.446000000     1.018000000
H     1.750000000    -0.911000000     1.664000000
C     0.127000000    -1.292000000     0.339000000
H     0.128000000    -2.323000000     0.682000000
C    -0.659000000    -0.776000000    -0.674000000
C    -1.730000000    -1.590000000    -1.401000000
H    -1.298000000    -2.347000000    -2.059000000
H    -2.392000000    -2.013000000    -0.643000000
H    -2.266000000    -0.991000000    -2.141000000
C    -0.605000000     0.602000000    -0.936000000
H    -1.293000000     0.978000000    -1.689000000
C     0.112000000     1.535000000    -0.180000000
H     0.245000000     2.565000000    -0.501000000
C     0.971000000     0.925000000     0.752000000
C     1.783000000     1.797000000     1.636000000
O     1.450000000     2.937000000     1.828000000
O     2.673000000     1.348000000     2.306000000
