17
-97.85659
C     0.402000000    -0.405000000     1.378000000
H     0.687000000    -0.714000000     2.380000000
C    -0.237000000    -1.210000000     0.444000000
H    -0.455000000    -2.236000000     0.727000000
C    -0.541000000    -0.757000000    -0.848000000
C    -1.166000000    -1.747000000    -1.814000000
H    -2.228000000    -1.773000000    -1.563000000
H    -1.013000000    -1.357000000    -2.822000000
H    -0.726000000    -2.741000000    -1.711000000
C    -0.206000000     0.544000000    -1.219000000
H    -0.509000000     0.966000000    -2.174000000
C     0.458000000     1.347000000    -0.250000000
H     0.800000000     2.344000000    -0.516000000
C     0.699000000     0.937000000     1.078000000
C     1.247000000     1.971000000     2.028000000
O     1.623000000     3.052000000     1.655000000
O     1.167000000     1.771000000     3.233000000
