17
-92.76587
C     0.911000000    -0.106000000     1.236000000
H     1.582000000    -0.338000000     2.058000000
C    -0.009000000    -1.035000000     0.805000000
H     0.027000000    -2.027000000     1.249000000
C    -0.830000000    -0.814000000    -0.271000000
C    -1.808000000    -1.880000000    -0.731000000
H    -1.240000000    -2.800000000    -0.888000000
H    -2.581000000    -2.017000000     0.028000000
H    -2.272000000    -1.593000000    -1.677000000
C    -0.814000000     0.343000000    -1.005000000
H    -1.345000000     0.577000000    -1.924000000
C     0.132000000     1.262000000    -0.692000000
H     0.211000000     2.155000000    -1.308000000
C     1.000000000     1.105000000     0.454000000
C     2.072000000     2.116000000     0.763000000
O     2.428000000     2.972000000     0.000000000
O     2.530000000     2.085000000     1.907000000
