17
-90.04414
C     0.934000000    -0.193000000     1.149000000
H     1.587000000    -0.480000000     1.969000000
C     0.029000000    -1.106000000     0.631000000
H     0.019000000    -2.102000000     1.066000000
C    -0.815000000    -0.755000000    -0.415000000
C    -1.807000000    -1.846000000    -0.802000000
H    -1.276000000    -2.554000000    -1.441000000
H    -2.291000000    -2.406000000     0.001000000
H    -2.618000000    -1.544000000    -1.468000000
C    -0.763000000     0.462000000    -0.957000000
H    -1.589000000     0.657000000    -1.636000000
C     0.138000000     1.402000000    -0.533000000
H     0.100000000     2.422000000    -0.909000000
C     1.062000000     1.052000000     0.487000000
C     2.122000000     2.071000000     0.881000000
O     2.252000000     3.013000000     0.175000000
O     2.920000000     1.909000000     1.807000000
