17
-86.74222
C     1.416000000     0.130000000    -0.094000000
H     2.485000000     0.311000000    -0.015000000
C     0.788000000    -0.735000000     0.706000000
H     1.444000000    -1.300000000     1.364000000
C    -0.587000000    -0.859000000     0.653000000
C    -1.191000000    -1.803000000     1.672000000
H    -2.171000000    -2.059000000     1.264000000
H    -0.513000000    -2.657000000     1.735000000
H    -1.282000000    -1.235000000     2.600000000
C    -1.374000000    -0.137000000    -0.226000000
H    -2.433000000    -0.335000000    -0.365000000
C    -0.732000000     0.798000000    -1.009000000
H    -1.221000000     1.473000000    -1.706000000
C     0.671000000     1.032000000    -0.882000000
C     1.332000000     2.125000000    -1.729000000
O     0.822000000     3.184000000    -1.945000000
O     2.538000000     2.072000000    -2.023000000
