17
-96.82317
C     0.439000000     0.823000000     1.156000000
H     0.577000000     1.358000000     2.092000000
C    -0.171000000    -0.429000000     1.207000000
H    -0.514000000    -0.852000000     2.147000000
C    -0.514000000    -1.104000000     0.112000000
C    -1.122000000    -2.467000000     0.212000000
H    -1.197000000    -2.908000000    -0.785000000
H    -0.412000000    -3.061000000     0.790000000
H    -2.134000000    -2.519000000     0.620000000
C    -0.260000000    -0.492000000    -1.140000000
H    -0.478000000    -1.101000000    -2.014000000
C     0.429000000     0.690000000    -1.244000000
H     0.564000000     1.120000000    -2.233000000
C     0.759000000     1.432000000    -0.077000000
C     1.240000000     2.821000000    -0.242000000
O     1.532000000     3.211000000    -1.370000000
O     1.254000000     3.485000000     0.769000000
