17
-99.63017
C     1.329000000     0.105000000    -0.557000000
H     2.378000000     0.040000000    -0.836000000
C     0.413000000    -0.942000000    -0.800000000
H     0.767000000    -1.850000000    -1.282000000
C    -0.821000000    -0.863000000    -0.207000000
C    -1.771000000    -2.021000000    -0.555000000
H    -1.457000000    -2.450000000    -1.509000000
H    -1.731000000    -2.822000000     0.186000000
H    -2.810000000    -1.690000000    -0.607000000
C    -1.208000000     0.304000000     0.530000000
H    -2.231000000     0.288000000     0.897000000
C    -0.302000000     1.274000000     0.774000000
H    -0.455000000     2.177000000     1.359000000
C     0.970000000     1.177000000     0.257000000
C     2.019000000     2.194000000     0.666000000
O     1.795000000     2.973000000     1.576000000
O     3.116000000     2.101000000     0.113000000
