17
-84.84325
C     1.438000000     0.305000000    -0.062000000
H     2.524000000     0.329000000    -0.119000000
C     0.807000000    -0.819000000    -0.585000000
H     1.393000000    -1.554000000    -1.130000000
C    -0.531000000    -0.978000000    -0.428000000
C    -1.183000000    -2.181000000    -1.072000000
H    -0.605000000    -2.726000000    -1.821000000
H    -1.188000000    -2.940000000    -0.288000000
H    -2.227000000    -2.024000000    -1.352000000
C    -1.293000000    -0.005000000     0.219000000
H    -2.366000000    -0.154000000     0.303000000
C    -0.647000000     1.073000000     0.888000000
H    -1.274000000     1.785000000     1.419000000
C     0.718000000     1.267000000     0.652000000
C     1.395000000     2.468000000     1.149000000
O     0.880000000     3.261000000     1.922000000
O     2.165000000     2.900000000     0.306000000
