17
-96.02979
C     1.324000000    -0.089000000    -0.444000000
H     2.345000000    -0.367000000    -0.692000000
C     0.356000000    -1.037000000    -0.682000000
H     0.620000000    -2.023000000    -1.057000000
C    -0.912000000    -0.779000000    -0.287000000
C    -1.924000000    -1.853000000    -0.531000000
H    -1.967000000    -2.083000000    -1.598000000
H    -1.654000000    -2.717000000     0.080000000
H    -2.989000000    -1.696000000    -0.344000000
C    -1.178000000     0.389000000     0.455000000
H    -2.129000000     0.625000000     0.925000000
C    -0.167000000     1.356000000     0.682000000
H    -0.334000000     2.235000000     1.299000000
C     1.100000000     1.123000000     0.146000000
C     2.187000000     2.075000000     0.561000000
O     2.061000000     2.844000000     1.519000000
O     3.266000000     2.005000000    -0.034000000
