17
-99.31518
C     1.014000000     1.019000000     0.143000000
H     1.834000000     1.721000000     0.271000000
C     1.236000000    -0.195000000    -0.475000000
H     2.247000000    -0.497000000    -0.737000000
C     0.219000000    -1.111000000    -0.428000000
C     0.430000000    -2.453000000    -0.982000000
H     0.047000000    -2.580000000    -1.996000000
H     1.482000000    -2.688000000    -1.156000000
H     0.020000000    -3.252000000    -0.361000000
C    -1.090000000    -0.769000000    -0.060000000
H    -1.950000000    -1.409000000    -0.241000000
C    -1.336000000     0.502000000     0.474000000
H    -2.318000000     0.755000000     0.866000000
C    -0.237000000     1.391000000     0.648000000
C    -0.451000000     2.822000000     1.221000000
O    -1.564000000     3.074000000     1.663000000
O     0.417000000     3.668000000     1.142000000
