17
-93.63877
C    -0.518000000     1.021000000    -0.907000000
H    -0.881000000     1.732000000    -1.645000000
C     0.047000000    -0.221000000    -1.227000000
H     0.020000000    -0.493000000    -2.279000000
C     0.437000000    -1.154000000    -0.289000000
C     0.964000000    -2.492000000    -0.831000000
H     1.316000000    -2.297000000    -1.846000000
H     1.813000000    -2.840000000    -0.239000000
H     0.167000000    -3.235000000    -0.773000000
C     0.331000000    -0.784000000     1.082000000
H     0.614000000    -1.510000000     1.840000000
C    -0.072000000     0.489000000     1.380000000
H    -0.082000000     0.868000000     2.398000000
C    -0.540000000     1.445000000     0.432000000
C    -1.033000000     2.786000000     0.873000000
O    -0.926000000     3.226000000     1.969000000
O    -1.665000000     3.464000000     0.057000000
