17
-94.40667
C    -0.001000000     0.580000000     1.404000000
H     0.057000000     1.095000000     2.360000000
C     0.921000000     0.820000000     0.396000000
H     1.610000000     1.647000000     0.542000000
C     0.854000000     0.254000000    -0.848000000
C     1.805000000     0.728000000    -1.923000000
H     2.185000000     1.740000000    -1.772000000
H     2.662000000     0.055000000    -1.998000000
H     1.302000000     0.634000000    -2.888000000
C    -0.090000000    -0.689000000    -1.071000000
H    -0.133000000    -1.215000000    -2.022000000
C    -1.008000000    -1.025000000    -0.103000000
H    -1.818000000    -1.716000000    -0.323000000
C    -1.036000000    -0.389000000     1.195000000
C    -2.142000000    -0.714000000     2.092000000
O    -3.200000000    -1.125000000     1.654000000
O    -1.961000000    -0.687000000     3.304000000
