17
-97.47000
C     0.755000000     0.801000000    -0.928000000
H     1.478000000     1.277000000    -1.586000000
C     1.004000000    -0.561000000    -0.699000000
H     1.757000000    -1.124000000    -1.245000000
C     0.149000000    -1.185000000     0.255000000
C     0.315000000    -2.699000000     0.371000000
H     0.733000000    -3.163000000    -0.525000000
H     0.978000000    -2.890000000     1.217000000
H    -0.720000000    -2.970000000     0.589000000
C    -0.906000000    -0.492000000     0.834000000
H    -1.436000000    -1.048000000     1.603000000
C    -1.122000000     0.865000000     0.632000000
H    -1.854000000     1.445000000     1.187000000
C    -0.248000000     1.509000000    -0.267000000
C    -0.273000000     3.010000000    -0.444000000
O    -1.228000000     3.613000000     0.040000000
O     0.619000000     3.617000000    -1.038000000
