17
-85.69940
C     0.625000000     0.796000000    -1.069000000
H     1.164000000     1.281000000    -1.879000000
C     1.028000000    -0.480000000    -0.659000000
H     1.756000000    -1.101000000    -1.174000000
C     0.372000000    -1.110000000     0.426000000
C     0.794000000    -2.509000000     0.854000000
H     0.359000000    -2.626000000     1.849000000
H     0.360000000    -3.212000000     0.141000000
H     1.864000000    -2.694000000     0.972000000
C    -0.755000000    -0.440000000     0.982000000
H    -1.417000000    -0.905000000     1.708000000
C    -1.114000000     0.849000000     0.595000000
H    -2.018000000     1.265000000     1.033000000
C    -0.452000000     1.413000000    -0.517000000
C    -0.684000000     2.848000000    -0.868000000
O    -1.809000000     3.235000000    -0.618000000
O    -0.080000000     3.384000000    -1.772000000
