17
-92.85057
C     1.023000000     1.005000000    -0.246000000
H     1.967000000     1.533000000    -0.356000000
C     1.111000000    -0.404000000    -0.361000000
H     2.072000000    -0.898000000    -0.481000000
C     0.028000000    -1.238000000    -0.171000000
C     0.288000000    -2.733000000    -0.106000000
H     0.877000000    -2.941000000     0.790000000
H    -0.599000000    -3.370000000    -0.074000000
H     0.848000000    -2.951000000    -1.017000000
C    -1.187000000    -0.627000000     0.151000000
H    -2.006000000    -1.331000000     0.280000000
C    -1.276000000     0.757000000     0.260000000
H    -2.260000000     1.216000000     0.293000000
C    -0.173000000     1.568000000     0.129000000
C    -0.264000000     3.089000000     0.174000000
O    -1.275000000     3.639000000     0.498000000
O     0.824000000     3.679000000     0.239000000
