17
-96.20599
C     0.998000000     0.946000000     0.539000000
H     1.789000000     1.655000000     0.771000000
C     1.040000000     0.330000000    -0.705000000
H     1.905000000     0.444000000    -1.353000000
C     0.049000000    -0.562000000    -1.070000000
C     0.213000000    -1.373000000    -2.373000000
H    -0.612000000    -1.179000000    -3.062000000
H     1.105000000    -1.106000000    -2.942000000
H     0.209000000    -2.455000000    -2.229000000
C    -0.943000000    -0.871000000    -0.162000000
H    -1.562000000    -1.735000000    -0.387000000
C    -1.068000000    -0.190000000     1.082000000
H    -1.932000000    -0.336000000     1.725000000
C    -0.103000000     0.793000000     1.401000000
C    -0.325000000     1.658000000     2.573000000
O    -1.233000000     1.432000000     3.350000000
O     0.468000000     2.548000000     2.850000000
