17
-94.48761
C     1.075000000     0.877000000     0.456000000
H     2.011000000     1.372000000     0.701000000
C     1.104000000     0.036000000    -0.643000000
H     2.046000000     0.073000000    -1.185000000
C     0.001000000    -0.692000000    -1.014000000
C     0.109000000    -1.566000000    -2.213000000
H    -0.259000000    -1.052000000    -3.103000000
H     1.144000000    -1.863000000    -2.396000000
H    -0.556000000    -2.420000000    -2.072000000
C    -1.190000000    -0.621000000    -0.223000000
H    -2.049000000    -1.282000000    -0.301000000
C    -1.155000000     0.106000000     0.951000000
H    -2.047000000    -0.016000000     1.560000000
C    -0.047000000     0.895000000     1.262000000
C    -0.031000000     1.817000000     2.451000000
O    -1.001000000     1.691000000     3.140000000
O     0.843000000     2.637000000     2.633000000
