17
-91.48413
C    -0.406000000     1.292000000     0.530000000
H    -0.567000000     2.327000000     0.820000000
C    -0.048000000     1.094000000    -0.816000000
H    -0.023000000     1.834000000    -1.612000000
C     0.261000000    -0.223000000    -1.170000000
C     0.727000000    -0.525000000    -2.543000000
H     1.424000000     0.290000000    -2.750000000
H     1.410000000    -1.371000000    -2.642000000
H    -0.032000000    -0.255000000    -3.280000000
C     0.202000000    -1.247000000    -0.254000000
H     0.555000000    -2.247000000    -0.493000000
C    -0.273000000    -1.024000000     1.007000000
H    -0.427000000    -1.816000000     1.736000000
C    -0.492000000     0.241000000     1.440000000
C    -0.791000000     0.471000000     2.949000000
O    -0.824000000    -0.466000000     3.740000000
O    -0.695000000     1.627000000     3.340000000
