17
-83.81671
C     0.421000000     1.325000000     0.491000000
H     0.535000000     2.382000000     0.718000000
C     0.663000000     0.827000000    -0.807000000
H     1.072000000     1.412000000    -1.626000000
C     0.330000000    -0.491000000    -1.067000000
C     0.296000000    -0.886000000    -2.563000000
H     0.073000000    -1.954000000    -2.587000000
H    -0.495000000    -0.291000000    -3.026000000
H     1.277000000    -0.871000000    -3.041000000
C    -0.199000000    -1.332000000    -0.082000000
H    -0.506000000    -2.328000000    -0.389000000
C    -0.437000000    -0.792000000     1.210000000
H    -0.786000000    -1.503000000     1.955000000
C    -0.117000000     0.525000000     1.497000000
C    -0.494000000     1.138000000     2.839000000
O    -1.444000000     0.620000000     3.374000000
O    -0.184000000     2.219000000     3.105000000
