17
-80.39078
C     0.536000000     1.046000000     0.984000000
H     0.961000000     1.914000000     1.481000000
C     0.439000000     1.122000000    -0.396000000
H     0.785000000     2.082000000    -0.771000000
C    -0.058000000     0.117000000    -1.220000000
C     0.074000000     0.182000000    -2.712000000
H     0.535000000    -0.700000000    -3.161000000
H    -0.935000000     0.305000000    -3.111000000
H     0.598000000     1.092000000    -3.012000000
C    -0.451000000    -1.065000000    -0.637000000
H    -0.826000000    -1.895000000    -1.231000000
C    -0.410000000    -1.157000000     0.715000000
H    -0.781000000    -2.021000000     1.261000000
C     0.001000000    -0.108000000     1.550000000
C    -0.109000000    -0.296000000     3.031000000
O    -0.823000000    -1.087000000     3.546000000
O     0.465000000     0.465000000     3.685000000
