17
-93.79687
C     0.450000000     0.025000000     1.374000000
H     0.892000000     0.094000000     2.364000000
C     0.914000000     0.855000000     0.360000000
H     1.611000000     1.650000000     0.613000000
C     0.560000000     0.655000000    -0.955000000
C     0.926000000     1.542000000    -2.073000000
H     1.007000000     1.049000000    -3.044000000
H     0.218000000     2.369000000    -2.159000000
H     1.942000000     1.900000000    -1.896000000
C    -0.427000000    -0.345000000    -1.173000000
H    -0.845000000    -0.486000000    -2.166000000
C    -0.952000000    -1.130000000    -0.108000000
H    -1.659000000    -1.935000000    -0.289000000
C    -0.445000000    -1.029000000     1.180000000
C    -1.144000000    -1.688000000     2.327000000
O    -2.316000000    -2.036000000     2.178000000
O    -0.725000000    -1.497000000     3.471000000
