17
-97.14285
C     0.323000000     0.582000000     1.290000000
H     0.639000000     1.094000000     2.195000000
C     1.039000000     0.697000000     0.139000000
H     1.968000000     1.261000000     0.138000000
C     0.642000000     0.117000000    -1.049000000
C     1.374000000     0.332000000    -2.315000000
H     1.865000000    -0.550000000    -2.731000000
H     0.782000000     0.778000000    -3.118000000
H     2.141000000     1.095000000    -2.165000000
C    -0.591000000    -0.522000000    -1.057000000
H    -0.870000000    -1.039000000    -1.971000000
C    -1.312000000    -0.682000000     0.104000000
H    -2.266000000    -1.195000000     0.017000000
C    -0.824000000    -0.207000000     1.350000000
C    -1.477000000    -0.506000000     2.708000000
O    -2.505000000    -1.110000000     2.728000000
O    -0.931000000    -0.140000000     3.743000000
