17
-96.69143
C     0.628000000     1.039000000     0.844000000
H     1.164000000     1.843000000     1.340000000
C     0.909000000     0.771000000    -0.482000000
H     1.698000000     1.282000000    -1.028000000
C     0.224000000    -0.247000000    -1.174000000
C     0.478000000    -0.574000000    -2.638000000
H     0.049000000     0.238000000    -3.229000000
H     1.553000000    -0.624000000    -2.828000000
H    -0.096000000    -1.447000000    -2.954000000
C    -0.715000000    -1.008000000    -0.556000000
H    -1.219000000    -1.844000000    -1.035000000
C    -1.036000000    -0.686000000     0.796000000
H    -1.769000000    -1.281000000     1.334000000
C    -0.310000000     0.239000000     1.530000000
C    -0.452000000     0.653000000     2.972000000
O    -1.069000000    -0.068000000     3.735000000
O    -0.033000000     1.720000000     3.374000000
