17
-101.65256
C    -1.016000000     0.818000000     0.620000000
H    -1.688000000     1.527000000     1.098000000
C    -0.148000000     1.207000000    -0.409000000
H    -0.105000000     2.238000000    -0.752000000
C     0.742000000     0.289000000    -0.962000000
C     1.622000000     0.711000000    -2.091000000
H     2.496000000     0.070000000    -2.227000000
H     1.013000000     0.814000000    -2.991000000
H     1.979000000     1.742000000    -2.042000000
C     0.817000000    -0.974000000    -0.401000000
H     1.479000000    -1.677000000    -0.901000000
C    -0.058000000    -1.399000000     0.604000000
H    -0.059000000    -2.366000000     1.099000000
C    -0.951000000    -0.454000000     1.190000000
C    -1.785000000    -0.771000000     2.413000000
O    -1.729000000    -1.868000000     2.946000000
O    -2.611000000     0.090000000     2.811000000
