17
-93.67863
C     0.311000000     1.383000000    -0.381000000
H     0.428000000     2.362000000    -0.839000000
C     0.658000000     0.269000000    -1.099000000
H     1.134000000     0.410000000    -2.066000000
C     0.302000000    -0.991000000    -0.638000000
C     0.574000000    -2.231000000    -1.473000000
H     1.229000000    -2.892000000    -0.902000000
H    -0.349000000    -2.718000000    -1.794000000
H     0.993000000    -1.953000000    -2.442000000
C    -0.369000000    -1.156000000     0.570000000
H    -0.596000000    -2.119000000     1.021000000
C    -0.675000000     0.009000000     1.307000000
H    -1.279000000    -0.070000000     2.207000000
C    -0.292000000     1.273000000     0.877000000
C    -0.673000000     2.508000000     1.617000000
O    -1.151000000     2.331000000     2.718000000
O    -0.248000000     3.585000000     1.324000000
