17
-94.42403
C    -0.468000000     1.285000000    -0.480000000
H    -0.667000000     2.215000000    -1.007000000
C    -0.222000000     0.134000000    -1.239000000
H    -0.306000000     0.196000000    -2.321000000
C     0.080000000    -1.063000000    -0.655000000
C     0.288000000    -2.267000000    -1.558000000
H     0.556000000    -1.964000000    -2.573000000
H     1.088000000    -2.919000000    -1.201000000
H    -0.656000000    -2.816000000    -1.540000000
C     0.296000000    -1.023000000     0.739000000
H     0.560000000    -1.936000000     1.267000000
C     0.251000000     0.125000000     1.473000000
H     0.470000000     0.110000000     2.538000000
C    -0.166000000     1.305000000     0.893000000
C    -0.389000000     2.531000000     1.714000000
O     0.297000000     2.646000000     2.696000000
O    -1.014000000     3.446000000     1.246000000
