17
-95.36635
C    -0.371000000     0.966000000    -1.116000000
H    -0.626000000     1.572000000    -1.982000000
C     0.224000000    -0.313000000    -1.337000000
H     0.465000000    -0.645000000    -2.344000000
C     0.479000000    -1.161000000    -0.229000000
C     1.209000000    -2.458000000    -0.302000000
H     1.123000000    -2.957000000     0.665000000
H     0.796000000    -3.129000000    -1.057000000
H     2.247000000    -2.168000000    -0.481000000
C     0.222000000    -0.665000000     1.073000000
H     0.446000000    -1.332000000     1.901000000
C    -0.370000000     0.584000000     1.221000000
H    -0.530000000     0.923000000     2.241000000
C    -0.669000000     1.445000000     0.185000000
C    -1.345000000     2.764000000     0.451000000
O    -1.317000000     3.232000000     1.540000000
O    -1.984000000     3.334000000    -0.426000000
