17
-100.39110
C    -0.787000000     0.940000000    -0.768000000
H    -1.270000000     1.625000000    -1.460000000
C    -0.085000000    -0.084000000    -1.285000000
H    -0.062000000    -0.274000000    -2.355000000
C     0.646000000    -0.949000000    -0.459000000
C     1.491000000    -2.071000000    -1.067000000
H     1.455000000    -2.955000000    -0.427000000
H     1.132000000    -2.433000000    -2.032000000
H     2.499000000    -1.652000000    -1.079000000
C     0.646000000    -0.725000000     0.916000000
H     1.233000000    -1.319000000     1.613000000
C    -0.060000000     0.369000000     1.472000000
H     0.001000000     0.604000000     2.531000000
C    -0.791000000     1.202000000     0.652000000
C    -1.716000000     2.305000000     1.123000000
O    -1.777000000     2.627000000     2.308000000
O    -2.547000000     2.795000000     0.325000000
