17
-88.96714
C    -1.097000000     0.429000000    -0.836000000
H    -1.811000000     0.506000000    -1.652000000
C    -0.126000000    -0.621000000    -1.138000000
H    -0.158000000    -1.182000000    -2.069000000
C     0.835000000    -0.943000000    -0.142000000
C     1.802000000    -2.088000000    -0.465000000
H     2.612000000    -1.629000000    -1.036000000
H     2.361000000    -2.379000000     0.427000000
H     1.282000000    -2.958000000    -0.871000000
C     0.834000000    -0.149000000     1.009000000
H     1.596000000    -0.342000000     1.761000000
C    -0.042000000     0.920000000     1.209000000
H    -0.034000000     1.399000000     2.184000000
C    -1.038000000     1.256000000     0.278000000
C    -2.085000000     2.291000000     0.429000000
O    -2.462000000     2.700000000     1.497000000
O    -2.463000000     2.782000000    -0.591000000
