17
-92.71898
C    -1.160000000     0.917000000     0.494000000
H    -1.959000000     1.588000000     0.800000000
C    -0.172000000     1.297000000    -0.342000000
H    -0.127000000     2.341000000    -0.639000000
C     0.815000000     0.399000000    -0.781000000
C     1.952000000     0.759000000    -1.756000000
H     1.859000000     1.796000000    -2.084000000
H     2.968000000     0.664000000    -1.366000000
H     1.947000000     0.047000000    -2.584000000
C     0.726000000    -0.952000000    -0.427000000
H     1.407000000    -1.657000000    -0.897000000
C    -0.182000000    -1.373000000     0.465000000
H    -0.307000000    -2.419000000     0.732000000
C    -1.200000000    -0.453000000     0.952000000
C    -2.007000000    -0.886000000     2.114000000
O    -1.900000000    -2.019000000     2.577000000
O    -2.668000000    -0.057000000     2.745000000
