17
-89.78558
C    -0.489000000     0.892000000    -0.996000000
H    -0.914000000     1.425000000    -1.843000000
C     0.192000000    -0.287000000    -1.191000000
H     0.369000000    -0.607000000    -2.215000000
C     0.785000000    -0.965000000    -0.174000000
C     1.444000000    -2.286000000    -0.430000000
H     0.787000000    -3.128000000    -0.205000000
H     1.792000000    -2.493000000    -1.444000000
H     2.341000000    -2.400000000     0.182000000
C     0.489000000    -0.537000000     1.136000000
H     0.776000000    -1.092000000     2.025000000
C    -0.223000000     0.656000000     1.308000000
H    -0.463000000     0.865000000     2.348000000
C    -0.823000000     1.359000000     0.248000000
C    -1.762000000     2.541000000     0.395000000
O    -1.547000000     3.427000000     1.160000000
O    -2.748000000     2.627000000    -0.299000000
