17
-97.27041
C    -1.239000000     0.565000000    -0.617000000
H    -2.085000000     0.911000000    -1.205000000
C    -0.805000000    -0.766000000    -0.678000000
H    -1.371000000    -1.506000000    -1.238000000
C     0.415000000    -1.175000000    -0.060000000
C     0.884000000    -2.598000000    -0.240000000
H     0.770000000    -3.170000000     0.682000000
H     0.444000000    -3.199000000    -1.039000000
H     1.933000000    -2.525000000    -0.537000000
C     1.109000000    -0.238000000     0.715000000
H     2.033000000    -0.532000000     1.205000000
C     0.670000000     1.035000000     0.751000000
H     1.170000000     1.708000000     1.443000000
C    -0.476000000     1.519000000     0.087000000
C    -1.016000000     2.938000000     0.192000000
O    -0.245000000     3.894000000     0.467000000
O    -2.184000000     3.144000000     0.065000000
