17
-93.41031
C    -0.477000000     0.905000000    -1.065000000
H    -0.809000000     1.539000000    -1.883000000
C    -0.016000000    -0.392000000    -1.280000000
H     0.110000000    -0.713000000    -2.310000000
C     0.410000000    -1.155000000    -0.182000000
C     0.827000000    -2.527000000    -0.390000000
H     0.483000000    -3.131000000     0.452000000
H     0.529000000    -2.926000000    -1.361000000
H     1.909000000    -2.628000000    -0.283000000
C     0.426000000    -0.573000000     1.065000000
H     0.727000000    -1.313000000     1.802000000
C    -0.103000000     0.676000000     1.333000000
H    -0.167000000     1.088000000     2.336000000
C    -0.593000000     1.431000000     0.220000000
C    -1.024000000     2.837000000     0.458000000
O    -0.614000000     3.401000000     1.464000000
O    -1.610000000     3.484000000    -0.368000000
