17
-91.89298
C    -0.734000000     1.003000000    -0.741000000
H    -1.259000000     1.725000000    -1.362000000
C    -0.305000000    -0.251000000    -1.211000000
H    -0.364000000    -0.463000000    -2.276000000
C     0.492000000    -1.078000000    -0.447000000
C     0.895000000    -2.379000000    -1.024000000
H     0.193000000    -2.609000000    -1.829000000
H     1.913000000    -2.410000000    -1.417000000
H     0.763000000    -3.125000000    -0.237000000
C     0.630000000    -0.779000000     0.907000000
H     1.023000000    -1.500000000     1.618000000
C     0.173000000     0.457000000     1.432000000
H     0.170000000     0.646000000     2.503000000
C    -0.514000000     1.386000000     0.624000000
C    -0.893000000     2.766000000     1.064000000
O    -0.644000000     3.244000000     2.142000000
O    -1.534000000     3.361000000     0.253000000
