17
-99.26820
C    -0.817000000     0.701000000     1.043000000
H    -1.416000000     1.332000000     1.694000000
C    -0.168000000     1.276000000    -0.091000000
H    -0.266000000     2.343000000    -0.270000000
C     0.458000000     0.498000000    -1.075000000
C     1.132000000     1.239000000    -2.217000000
H     0.878000000     0.768000000    -3.169000000
H     0.973000000     2.318000000    -2.167000000
H     2.213000000     1.108000000    -2.135000000
C     0.465000000    -0.917000000    -0.855000000
H     0.790000000    -1.568000000    -1.662000000
C    -0.103000000    -1.465000000     0.313000000
H    -0.154000000    -2.540000000     0.461000000
C    -0.614000000    -0.609000000     1.336000000
C    -1.067000000    -1.308000000     2.590000000
O    -0.992000000    -2.539000000     2.612000000
O    -1.310000000    -0.632000000     3.591000000
