17
-99.35886
C    -0.444000000     1.387000000     0.013000000
H    -0.611000000     2.457000000    -0.087000000
C     0.073000000     0.690000000    -1.089000000
H     0.254000000     1.281000000    -1.983000000
C     0.444000000    -0.643000000    -0.989000000
C     0.895000000    -1.386000000    -2.154000000
H     0.217000000    -1.304000000    -3.006000000
H     1.864000000    -1.074000000    -2.550000000
H     0.943000000    -2.457000000    -1.942000000
C     0.337000000    -1.294000000     0.226000000
H     0.604000000    -2.342000000     0.335000000
C    -0.227000000    -0.586000000     1.333000000
H    -0.359000000    -1.069000000     2.299000000
C    -0.571000000     0.792000000     1.256000000
C    -1.097000000     1.592000000     2.444000000
O    -1.038000000     1.136000000     3.587000000
O    -1.280000000     2.824000000     2.300000000
