17
-96.53446
C     0.146000000     1.492000000    -0.220000000
H     0.314000000     2.525000000    -0.515000000
C     1.038000000     0.440000000    -0.587000000
H     1.915000000     0.620000000    -1.204000000
C     0.816000000    -0.903000000    -0.341000000
C     1.804000000    -1.952000000    -0.780000000
H     1.977000000    -2.651000000     0.041000000
H     1.384000000    -2.509000000    -1.620000000
H     2.758000000    -1.504000000    -1.064000000
C    -0.359000000    -1.231000000     0.326000000
H    -0.468000000    -2.290000000     0.545000000
C    -1.241000000    -0.226000000     0.783000000
H    -2.192000000    -0.388000000     1.283000000
C    -1.016000000     1.142000000     0.496000000
C    -1.985000000     2.234000000     0.875000000
O    -2.958000000     1.875000000     1.550000000
O    -1.926000000     3.328000000     0.427000000
