17
-89.04229
C     0.379000000     1.361000000     0.048000000
H     0.811000000     2.358000000     0.065000000
C     1.052000000     0.357000000    -0.676000000
H     2.018000000     0.518000000    -1.149000000
C     0.557000000    -0.945000000    -0.652000000
C     1.279000000    -2.086000000    -1.322000000
H     2.230000000    -1.757000000    -1.745000000
H     1.553000000    -2.872000000    -0.616000000
H     0.706000000    -2.623000000    -2.082000000
C    -0.590000000    -1.079000000     0.113000000
H    -1.146000000    -2.013000000     0.098000000
C    -1.223000000    -0.071000000     0.831000000
H    -2.078000000    -0.329000000     1.450000000
C    -0.788000000     1.199000000     0.711000000
C    -1.361000000     2.380000000     1.480000000
O    -2.051000000     2.166000000     2.472000000
O    -1.341000000     3.444000000     0.968000000
