17
-89.97741
C     0.913000000     1.139000000    -0.029000000
H     1.651000000     1.935000000     0.027000000
C     0.992000000     0.055000000    -0.896000000
H     1.726000000     0.042000000    -1.697000000
C     0.089000000    -1.046000000    -0.728000000
C     0.006000000    -2.229000000    -1.718000000
H    -0.096000000    -3.129000000    -1.109000000
H    -0.887000000    -2.175000000    -2.343000000
H     0.856000000    -2.312000000    -2.398000000
C    -0.875000000    -0.846000000     0.234000000
H    -1.717000000    -1.529000000     0.304000000
C    -0.947000000     0.255000000     1.105000000
H    -1.636000000     0.330000000     1.942000000
C    -0.050000000     1.287000000     0.976000000
C    -0.015000000     2.420000000     1.873000000
O    -0.896000000     2.585000000     2.658000000
O     0.892000000     3.222000000     1.800000000
