17
-88.86217
C     0.924000000     1.221000000     0.034000000
H     1.505000000     2.120000000    -0.154000000
C     0.269000000     0.706000000    -1.091000000
H     0.483000000     1.070000000    -2.093000000
C    -0.368000000    -0.539000000    -1.007000000
C    -0.979000000    -1.274000000    -2.237000000
H    -0.146000000    -1.585000000    -2.871000000
H    -1.524000000    -2.187000000    -1.988000000
H    -1.733000000    -0.702000000    -2.782000000
C    -0.630000000    -1.135000000     0.184000000
H    -1.299000000    -1.980000000     0.331000000
C    -0.124000000    -0.505000000     1.321000000
H    -0.226000000    -1.018000000     2.274000000
C     0.626000000     0.710000000     1.307000000
C     0.995000000     1.474000000     2.584000000
O     0.538000000     1.178000000     3.684000000
O     1.688000000     2.439000000     2.511000000
