17
-82.66319
C     0.988000000     1.046000000     0.281000000
H     1.862000000     1.688000000     0.365000000
C     0.602000000     0.644000000    -0.986000000
H     1.077000000     1.129000000    -1.835000000
C    -0.270000000    -0.379000000    -1.096000000
C    -0.697000000    -0.767000000    -2.554000000
H    -1.147000000    -1.759000000    -2.634000000
H    -1.541000000    -0.173000000    -2.912000000
H     0.092000000    -0.551000000    -3.277000000
C    -0.790000000    -0.996000000     0.047000000
H    -1.591000000    -1.710000000    -0.125000000
C    -0.476000000    -0.541000000     1.335000000
H    -0.868000000    -1.129000000     2.161000000
C     0.420000000     0.478000000     1.478000000
C     0.685000000     0.928000000     2.876000000
O     0.110000000     0.414000000     3.811000000
O     1.548000000     1.683000000     3.059000000
