17
-98.74627
C     0.865000000     1.035000000     0.576000000
H     1.487000000     1.819000000     0.999000000
C     0.928000000     0.693000000    -0.765000000
H     1.635000000     1.220000000    -1.402000000
C     0.076000000    -0.345000000    -1.146000000
C     0.083000000    -0.752000000    -2.610000000
H     0.151000000     0.132000000    -3.247000000
H     0.884000000    -1.488000000    -2.705000000
H    -0.879000000    -1.202000000    -2.863000000
C    -0.733000000    -1.060000000    -0.284000000
H    -1.392000000    -1.863000000    -0.603000000
C    -0.691000000    -0.706000000     1.069000000
H    -1.364000000    -1.159000000     1.793000000
C     0.011000000     0.412000000     1.467000000
C    -0.241000000     0.919000000     2.862000000
O    -1.073000000     0.362000000     3.601000000
O     0.250000000     1.977000000     3.258000000
