17
-90.58856
C     0.522000000     0.909000000     0.977000000
H     1.025000000     1.671000000     1.568000000
C     0.793000000     0.874000000    -0.416000000
H     1.457000000     1.545000000    -0.956000000
C     0.148000000    -0.041000000    -1.246000000
C     0.658000000    -0.234000000    -2.663000000
H     0.853000000    -1.271000000    -2.943000000
H     0.232000000     0.442000000    -3.408000000
H     1.713000000     0.046000000    -2.650000000
C    -0.662000000    -0.926000000    -0.647000000
H    -1.008000000    -1.743000000    -1.274000000
C    -1.035000000    -0.822000000     0.727000000
H    -1.718000000    -1.577000000     1.109000000
C    -0.464000000     0.131000000     1.593000000
C    -0.742000000     0.295000000     3.041000000
O    -1.855000000    -0.084000000     3.386000000
O     0.077000000     0.788000000     3.810000000
