17
-92.22188
C     0.265000000     1.050000000     1.085000000
H     0.525000000     1.843000000     1.782000000
C     1.089000000     0.736000000    -0.011000000
H     2.020000000     1.288000000    -0.110000000
C     0.724000000    -0.177000000    -1.001000000
C     1.728000000    -0.612000000    -2.084000000
H     1.471000000    -1.654000000    -2.284000000
H     1.567000000     0.070000000    -2.922000000
H     2.736000000    -0.512000000    -1.675000000
C    -0.470000000    -0.877000000    -0.927000000
H    -0.664000000    -1.705000000    -1.605000000
C    -1.296000000    -0.553000000     0.181000000
H    -2.233000000    -1.102000000     0.247000000
C    -0.917000000     0.274000000     1.241000000
C    -1.917000000     0.525000000     2.380000000
O    -2.999000000    -0.026000000     2.579000000
O    -1.621000000     1.425000000     3.125000000
