17
-94.93409
C    -0.511000000     0.586000000     1.254000000
H    -0.760000000     1.149000000     2.150000000
C     0.394000000     1.241000000     0.393000000
H     0.732000000     2.263000000     0.542000000
C     0.801000000     0.529000000    -0.726000000
C     1.880000000     1.060000000    -1.599000000
H     2.422000000     0.217000000    -2.032000000
H     1.535000000     1.633000000    -2.463000000
H     2.581000000     1.641000000    -0.996000000
C     0.235000000    -0.678000000    -1.108000000
H     0.569000000    -1.139000000    -2.034000000
C    -0.719000000    -1.236000000    -0.298000000
H    -1.135000000    -2.206000000    -0.559000000
C    -1.118000000    -0.631000000     0.901000000
C    -2.037000000    -1.310000000     1.909000000
O    -2.886000000    -2.106000000     1.583000000
O    -1.988000000    -1.011000000     3.078000000
