17
-90.51646
C    -0.521000000     0.377000000     1.360000000
H    -0.858000000     0.815000000     2.295000000
C     0.745000000     0.728000000     0.849000000
H     1.364000000     1.436000000     1.394000000
C     1.153000000     0.263000000    -0.422000000
C     2.374000000     0.940000000    -1.073000000
H     3.043000000     1.367000000    -0.323000000
H     3.078000000     0.260000000    -1.558000000
H     2.051000000     1.742000000    -1.740000000
C     0.380000000    -0.691000000    -1.161000000
H     0.736000000    -0.952000000    -2.154000000
C    -0.898000000    -1.076000000    -0.614000000
H    -1.548000000    -1.771000000    -1.138000000
C    -1.426000000    -0.498000000     0.594000000
C    -2.818000000    -0.891000000     1.108000000
O    -3.596000000    -1.611000000     0.457000000
O    -3.261000000    -0.430000000     2.134000000
