17
-86.87178
C    -0.548000000     1.249000000     0.455000000
H    -0.775000000     2.208000000     0.915000000
C     0.814000000     0.977000000     0.355000000
H     1.510000000     1.748000000     0.676000000
C     1.216000000    -0.207000000    -0.166000000
C     2.617000000    -0.556000000    -0.041000000
H     2.776000000    -1.604000000     0.221000000
H     3.187000000    -0.302000000    -0.937000000
H     3.003000000     0.094000000     0.747000000
C     0.289000000    -1.149000000    -0.556000000
H     0.598000000    -2.137000000    -0.884000000
C    -1.101000000    -0.862000000    -0.544000000
H    -1.868000000    -1.547000000    -0.896000000
C    -1.495000000     0.361000000     0.002000000
C    -3.009000000     0.530000000     0.176000000
O    -3.780000000    -0.097000000    -0.479000000
O    -3.441000000     1.299000000     0.964000000
