17
-85.11115
C    -0.207000000     1.286000000     0.720000000
H    -0.450000000     2.136000000     1.351000000
C     0.798000000     0.284000000     1.005000000
H     1.456000000     0.411000000     1.860000000
C     0.902000000    -0.836000000     0.187000000
C     1.904000000    -1.899000000     0.524000000
H     1.777000000    -2.261000000     1.546000000
H     2.032000000    -2.732000000    -0.170000000
H     2.866000000    -1.392000000     0.626000000
C    -0.076000000    -1.018000000    -0.737000000
H    -0.028000000    -1.862000000    -1.420000000
C    -1.043000000    -0.123000000    -1.041000000
H    -1.738000000    -0.302000000    -1.858000000
C    -1.072000000     1.106000000    -0.391000000
C    -2.045000000     2.155000000    -0.690000000
O    -2.959000000     1.812000000    -1.374000000
O    -2.112000000     3.242000000    -0.140000000
