17
-90.57677
C    -0.432000000     0.878000000     1.118000000
H    -0.715000000     1.535000000     1.936000000
C     0.633000000    -0.050000000     1.197000000
H     1.122000000    -0.272000000     2.143000000
C     0.916000000    -0.851000000     0.072000000
C     1.867000000    -1.983000000     0.097000000
H     2.338000000    -2.178000000    -0.869000000
H     2.760000000    -1.693000000     0.655000000
H     1.473000000    -2.926000000     0.481000000
C     0.287000000    -0.534000000    -1.080000000
H     0.550000000    -1.109000000    -1.965000000
C    -0.685000000     0.461000000    -1.189000000
H    -1.166000000     0.593000000    -2.155000000
C    -1.140000000     1.131000000    -0.066000000
C    -2.282000000     2.114000000    -0.116000000
O    -2.666000000     2.534000000    -1.159000000
O    -2.852000000     2.356000000     0.893000000
