17
-82.62303
C    -0.626000000    -0.269000000    -1.360000000
H    -1.068000000    -0.474000000    -2.332000000
C     0.403000000    -0.963000000    -0.784000000
H     0.933000000    -1.796000000    -1.239000000
C     0.848000000    -0.670000000     0.501000000
C     1.962000000    -1.468000000     1.091000000
H     2.470000000    -0.904000000     1.876000000
H     1.420000000    -2.331000000     1.482000000
H     2.755000000    -1.737000000     0.391000000
C     0.428000000     0.414000000     1.147000000
H     0.904000000     0.691000000     2.084000000
C    -0.567000000     1.185000000     0.606000000
H    -0.869000000     2.055000000     1.183000000
C    -1.200000000     0.813000000    -0.605000000
C    -2.299000000     1.576000000    -1.174000000
O    -2.677000000     2.573000000    -0.643000000
O    -2.817000000     1.310000000    -2.225000000
