17
-100.17195
C    -0.903000000    -0.461000000    -1.023000000
H    -1.515000000    -0.848000000    -1.833000000
C     0.301000000    -1.095000000    -0.701000000
H     0.702000000    -1.901000000    -1.309000000
C     1.004000000    -0.597000000     0.408000000
C     2.214000000    -1.340000000     0.818000000
H     2.919000000    -1.208000000    -0.006000000
H     2.599000000    -0.960000000     1.766000000
H     1.971000000    -2.404000000     0.854000000
C     0.584000000     0.573000000     1.093000000
H     1.061000000     0.882000000     2.020000000
C    -0.558000000     1.265000000     0.663000000
H    -0.797000000     2.258000000     1.036000000
C    -1.309000000     0.691000000    -0.389000000
C    -2.480000000     1.482000000    -0.936000000
O    -2.521000000     2.713000000    -0.770000000
O    -3.280000000     0.951000000    -1.686000000
