17
-93.05921
C    -1.137000000    -0.256000000    -0.839000000
H    -1.926000000    -0.464000000    -1.557000000
C     0.009000000    -1.018000000    -0.727000000
H     0.083000000    -1.945000000    -1.290000000
C     1.046000000    -0.684000000     0.064000000
C     2.236000000    -1.579000000     0.155000000
H     2.790000000    -1.610000000    -0.785000000
H     2.832000000    -1.294000000     1.025000000
H     1.905000000    -2.603000000     0.343000000
C     0.893000000     0.449000000     0.892000000
H     1.768000000     0.804000000     1.430000000
C    -0.268000000     1.241000000     0.855000000
H    -0.358000000     2.192000000     1.374000000
C    -1.229000000     0.924000000    -0.075000000
C    -2.576000000     1.689000000    -0.166000000
O    -2.605000000     2.851000000     0.201000000
O    -3.471000000     1.299000000    -0.895000000
