17
-94.52809
C    -1.115000000    -0.239000000    -1.054000000
H    -1.724000000    -0.523000000    -1.909000000
C     0.052000000    -1.044000000    -0.856000000
H     0.365000000    -1.794000000    -1.579000000
C     0.929000000    -0.803000000     0.181000000
C     2.224000000    -1.474000000     0.427000000
H     2.896000000    -1.395000000    -0.430000000
H     2.775000000    -1.129000000     1.305000000
H     2.048000000    -2.484000000     0.803000000
C     0.679000000     0.255000000     1.004000000
H     1.406000000     0.570000000     1.747000000
C    -0.450000000     1.071000000     0.820000000
H    -0.569000000     1.995000000     1.381000000
C    -1.310000000     0.834000000    -0.246000000
C    -2.435000000     1.792000000    -0.449000000
O    -2.438000000     2.872000000     0.101000000
O    -3.330000000     1.497000000    -1.250000000
