17
-83.17750
C    -0.648000000    -0.958000000    -1.002000000
H    -0.836000000    -1.744000000    -1.729000000
C     0.666000000    -0.994000000    -0.543000000
H     1.212000000    -1.826000000    -0.981000000
C     1.144000000    -0.083000000     0.390000000
C     2.682000000     0.142000000     0.549000000
H     2.890000000     0.761000000     1.424000000
H     3.143000000    -0.823000000     0.770000000
H     3.194000000     0.580000000    -0.310000000
C     0.297000000     0.955000000     0.908000000
H     0.572000000     1.777000000     1.562000000
C    -1.039000000     0.882000000     0.489000000
H    -1.693000000     1.647000000     0.898000000
C    -1.537000000    -0.082000000    -0.302000000
C    -2.984000000    -0.101000000    -0.592000000
O    -3.577000000     0.939000000    -0.445000000
O    -3.483000000    -1.065000000    -1.083000000
