17
-91.44689
C    -0.925000000    -0.490000000    -1.118000000
H    -1.433000000    -1.042000000    -1.905000000
C     0.420000000    -0.850000000    -0.911000000
H     1.008000000    -1.569000000    -1.476000000
C     1.200000000    -0.132000000     0.038000000
C     2.698000000    -0.466000000     0.210000000
H     3.189000000    -0.631000000    -0.752000000
H     3.214000000     0.339000000     0.737000000
H     2.836000000    -1.424000000     0.715000000
C     0.612000000     0.706000000     1.009000000
H     1.280000000     1.210000000     1.703000000
C    -0.823000000     0.793000000     0.956000000
H    -1.417000000     1.274000000     1.728000000
C    -1.573000000     0.245000000    -0.072000000
C    -3.037000000     0.548000000    -0.178000000
O    -3.477000000     1.645000000     0.179000000
O    -3.779000000    -0.162000000    -0.867000000
