17
-92.09002
C    -0.522000000    -1.259000000    -0.576000000
H    -0.829000000    -2.286000000    -0.755000000
C     0.700000000    -1.079000000     0.120000000
H     1.324000000    -1.958000000     0.258000000
C     1.001000000     0.123000000     0.732000000
C     2.248000000     0.266000000     1.575000000
H     2.445000000     1.305000000     1.846000000
H     2.222000000    -0.336000000     2.486000000
H     3.129000000    -0.023000000     0.998000000
C     0.197000000     1.257000000     0.498000000
H     0.407000000     2.231000000     0.932000000
C    -0.957000000     1.062000000    -0.323000000
H    -1.572000000     1.890000000    -0.667000000
C    -1.323000000    -0.175000000    -0.856000000
C    -2.493000000    -0.308000000    -1.807000000
O    -3.290000000     0.590000000    -2.000000000
O    -2.691000000    -1.292000000    -2.466000000
