17
-83.81115
C    -0.592000000    -1.034000000    -0.887000000
H    -0.981000000    -1.953000000    -1.318000000
C     0.603000000    -1.187000000    -0.184000000
H     1.174000000    -2.097000000    -0.352000000
C     1.091000000    -0.137000000     0.613000000
C     2.445000000    -0.159000000     1.095000000
H     2.919000000     0.735000000     0.685000000
H     2.595000000    -0.151000000     2.177000000
H     2.831000000    -1.066000000     0.625000000
C     0.378000000     1.023000000     0.814000000
H     0.784000000     1.819000000     1.433000000
C    -0.873000000     1.147000000     0.178000000
H    -1.605000000     1.923000000     0.386000000
C    -1.370000000     0.133000000    -0.724000000
C    -2.747000000     0.285000000    -1.346000000
O    -3.256000000     1.364000000    -1.468000000
O    -3.388000000    -0.649000000    -1.731000000
