17
-97.76365
C    -0.889000000    -1.029000000     0.649000000
H    -1.552000000    -1.758000000     1.107000000
C     0.522000000    -0.989000000     0.829000000
H     1.050000000    -1.718000000     1.438000000
C     1.226000000     0.069000000     0.169000000
C     2.726000000     0.155000000     0.310000000
H     3.014000000     0.198000000     1.363000000
H     3.227000000    -0.633000000    -0.257000000
H     3.036000000     1.115000000    -0.107000000
C     0.562000000     0.983000000    -0.610000000
H     1.092000000     1.768000000    -1.143000000
C    -0.823000000     0.948000000    -0.849000000
H    -1.326000000     1.755000000    -1.374000000
C    -1.565000000    -0.115000000    -0.208000000
C    -3.017000000    -0.252000000    -0.393000000
O    -3.571000000     0.641000000    -1.040000000
O    -3.709000000    -1.130000000     0.119000000
