17
-97.54949
C    -0.019000000    -0.791000000    -1.276000000
H     0.067000000    -1.381000000    -2.185000000
C     1.031000000    -0.708000000    -0.369000000
H     1.931000000    -1.291000000    -0.548000000
C     0.968000000     0.050000000     0.784000000
C     2.170000000     0.339000000     1.588000000
H     2.310000000     1.410000000     1.748000000
H     2.134000000    -0.078000000     2.597000000
H     3.034000000    -0.161000000     1.145000000
C    -0.249000000     0.662000000     1.097000000
H    -0.357000000     1.264000000     1.995000000
C    -1.305000000     0.623000000     0.239000000
H    -2.185000000     1.220000000     0.467000000
C    -1.270000000    -0.156000000    -0.965000000
C    -2.421000000    -0.271000000    -1.852000000
O    -3.542000000     0.131000000    -1.537000000
O    -2.290000000    -0.867000000    -2.923000000
