17
-86.51855
C    -0.483000000    -0.373000000    -1.343000000
H    -0.690000000    -0.757000000    -2.339000000
C     0.830000000    -0.553000000    -0.897000000
H     1.613000000    -0.989000000    -1.512000000
C     1.119000000    -0.136000000     0.419000000
C     2.522000000    -0.342000000     0.974000000
H     3.366000000    -0.370000000     0.281000000
H     2.756000000     0.542000000     1.569000000
H     2.578000000    -1.288000000     1.516000000
C     0.128000000     0.439000000     1.162000000
H     0.430000000     0.806000000     2.139000000
C    -1.172000000     0.583000000     0.804000000
H    -1.871000000     1.194000000     1.368000000
C    -1.462000000     0.202000000    -0.482000000
C    -2.879000000     0.282000000    -1.068000000
O    -3.744000000     0.549000000    -0.340000000
O    -3.036000000     0.211000000    -2.256000000
