17
-87.63041
C    -0.655000000    -0.934000000    -0.946000000
H    -0.934000000    -1.620000000    -1.742000000
C     0.724000000    -0.896000000    -0.526000000
H     1.487000000    -1.602000000    -0.842000000
C     1.244000000     0.070000000     0.291000000
C     2.676000000     0.171000000     0.666000000
H     2.739000000     1.024000000     1.345000000
H     3.097000000    -0.786000000     0.984000000
H     3.319000000     0.490000000    -0.156000000
C     0.327000000     1.007000000     0.768000000
H     0.605000000     1.884000000     1.346000000
C    -1.071000000     0.836000000     0.547000000
H    -1.749000000     1.445000000     1.140000000
C    -1.565000000    -0.127000000    -0.365000000
C    -2.980000000    -0.212000000    -0.781000000
O    -3.881000000     0.079000000     0.032000000
O    -3.380000000    -0.830000000    -1.768000000
