17
-86.61617
C    -0.570000000    -0.816000000     1.085000000
H    -0.983000000    -1.250000000     1.992000000
C     0.383000000     0.093000000     1.248000000
H     0.698000000     0.351000000     2.256000000
C     0.931000000     0.754000000     0.139000000
C     1.988000000     1.817000000     0.400000000
H     2.979000000     1.367000000     0.321000000
H     1.758000000     2.527000000    -0.397000000
H     1.812000000     2.302000000     1.363000000
C     0.397000000     0.593000000    -1.132000000
H     0.755000000     1.109000000    -2.020000000
C    -0.593000000    -0.318000000    -1.307000000
H    -1.043000000    -0.447000000    -2.287000000
C    -1.063000000    -1.118000000    -0.254000000
C    -2.160000000    -2.080000000    -0.391000000
O    -2.588000000    -2.214000000    -1.521000000
O    -2.698000000    -2.671000000     0.498000000
