17
-91.70364
C    -0.417000000    -0.511000000     1.289000000
H    -0.575000000    -0.905000000     2.289000000
C     0.334000000     0.661000000     1.128000000
H     0.671000000     1.163000000     2.031000000
C     0.625000000     1.036000000    -0.200000000
C     1.665000000     2.089000000    -0.372000000
H     2.525000000     1.533000000    -0.751000000
H     1.439000000     2.907000000    -1.058000000
H     2.184000000     2.394000000     0.539000000
C     0.112000000     0.342000000    -1.306000000
H     0.397000000     0.615000000    -2.319000000
C    -0.777000000    -0.649000000    -1.074000000
H    -1.122000000    -1.315000000    -1.861000000
C    -0.974000000    -1.148000000     0.193000000
C    -1.800000000    -2.398000000     0.412000000
O    -2.306000000    -3.002000000    -0.498000000
O    -1.984000000    -2.817000000     1.554000000
