17
-95.84563
C    -0.095000000    -1.025000000     0.964000000
H    -0.101000000    -1.827000000     1.698000000
C     0.797000000     0.038000000     1.047000000
H     1.535000000     0.045000000     1.845000000
C     0.732000000     1.001000000     0.071000000
C     1.670000000     2.137000000     0.127000000
H     2.083000000     2.195000000     1.137000000
H     2.442000000     1.824000000    -0.579000000
H     1.228000000     3.087000000    -0.177000000
C    -0.179000000     0.848000000    -1.000000000
H    -0.181000000     1.637000000    -1.747000000
C    -1.035000000    -0.233000000    -1.063000000
H    -1.781000000    -0.261000000    -1.853000000
C    -0.988000000    -1.148000000    -0.038000000
C    -1.904000000    -2.398000000    -0.096000000
O    -2.645000000    -2.636000000    -1.019000000
O    -1.572000000    -3.289000000     0.687000000
