17
-88.62170
C    -0.867000000    -1.124000000     0.502000000
H    -1.420000000    -1.897000000     1.030000000
C     0.066000000    -0.389000000     1.211000000
H     0.303000000    -0.659000000     2.237000000
C     0.750000000     0.659000000     0.714000000
C     1.677000000     1.475000000     1.535000000
H     2.668000000     1.390000000     1.085000000
H     1.384000000     2.526000000     1.501000000
H     1.623000000     1.162000000     2.580000000
C     0.625000000     0.922000000    -0.630000000
H     1.132000000     1.772000000    -1.082000000
C    -0.242000000     0.178000000    -1.427000000
H    -0.497000000     0.539000000    -2.419000000
C    -1.014000000    -0.786000000    -0.855000000
C    -1.873000000    -1.660000000    -1.737000000
O    -1.915000000    -1.451000000    -2.918000000
O    -2.406000000    -2.657000000    -1.332000000
