17
-94.39657
C     0.299000000     0.992000000     1.058000000
H     0.494000000     1.819000000     1.736000000
C     0.032000000     1.265000000    -0.277000000
H     0.170000000     2.256000000    -0.701000000
C    -0.248000000     0.220000000    -1.177000000
C    -0.477000000     0.515000000    -2.626000000
H     0.449000000     0.832000000    -3.112000000
H    -0.673000000    -0.460000000    -3.075000000
H    -1.245000000     1.261000000    -2.841000000
C    -0.246000000    -1.108000000    -0.753000000
H    -0.531000000    -1.838000000    -1.505000000
C     0.041000000    -1.354000000     0.598000000
H    -0.097000000    -2.323000000     1.071000000
C     0.309000000    -0.314000000     1.503000000
C     0.630000000    -0.588000000     2.963000000
O     0.175000000    -1.575000000     3.492000000
O     0.913000000     0.399000000     3.645000000
