17
-93.81818
C    -0.139000000    -1.354000000     0.620000000
H    -0.035000000    -2.276000000     1.186000000
C    -0.154000000    -0.136000000     1.277000000
H    -0.278000000    -0.117000000     2.357000000
C    -0.050000000     1.069000000     0.536000000
C    -0.071000000     2.369000000     1.362000000
H    -0.161000000     3.185000000     0.642000000
H    -0.960000000     2.426000000     1.993000000
H     0.850000000     2.594000000     1.904000000
C    -0.021000000     1.065000000    -0.806000000
H     0.017000000     1.955000000    -1.429000000
C     0.034000000    -0.119000000    -1.432000000
H    -0.071000000    -0.186000000    -2.512000000
C     0.067000000    -1.354000000    -0.740000000
C     0.271000000    -2.711000000    -1.462000000
O     0.367000000    -2.657000000    -2.659000000
O     0.339000000    -3.760000000    -0.843000000
