17
-90.54431
C     0.108000000    -1.374000000     0.765000000
H     0.251000000    -2.283000000     1.344000000
C    -0.135000000    -0.127000000     1.345000000
H    -0.171000000    -0.025000000     2.426000000
C    -0.103000000     1.077000000     0.638000000
C    -0.396000000     2.405000000     1.187000000
H     0.145000000     3.179000000     0.638000000
H    -1.420000000     2.710000000     0.966000000
H    -0.138000000     2.401000000     2.248000000
C    -0.057000000     1.027000000    -0.769000000
H    -0.166000000     1.888000000    -1.424000000
C     0.146000000    -0.207000000    -1.346000000
H     0.257000000    -0.249000000    -2.426000000
C     0.145000000    -1.412000000    -0.635000000
C     0.464000000    -2.647000000    -1.438000000
O     0.769000000    -2.686000000    -2.641000000
O     0.304000000    -3.684000000    -0.881000000
