17
-93.43086
C    -0.566000000    -1.277000000     0.322000000
H    -1.077000000    -2.199000000     0.587000000
C    -0.914000000    -0.114000000     0.909000000
H    -1.683000000    -0.222000000     1.670000000
C    -0.389000000     1.118000000     0.514000000
C    -0.834000000     2.458000000     1.052000000
H    -0.525000000     2.271000000     2.083000000
H    -0.327000000     3.325000000     0.623000000
H    -1.919000000     2.483000000     0.934000000
C     0.514000000     1.041000000    -0.513000000
H     0.902000000     1.983000000    -0.891000000
C     1.039000000    -0.156000000    -1.069000000
H     1.886000000    -0.232000000    -1.745000000
C     0.496000000    -1.351000000    -0.653000000
C     0.977000000    -2.686000000    -1.156000000
O     1.818000000    -2.709000000    -2.035000000
O     0.602000000    -3.732000000    -0.635000000
