17
-96.39671
C     0.083000000    -1.392000000     0.607000000
H     0.089000000    -2.369000000     1.084000000
C    -0.646000000    -0.298000000     1.122000000
H    -1.112000000    -0.296000000     2.104000000
C    -0.694000000     0.913000000     0.404000000
C    -1.511000000     1.999000000     1.067000000
H    -1.762000000     1.742000000     2.098000000
H    -0.927000000     2.920000000     1.000000000
H    -2.415000000     2.140000000     0.471000000
C     0.038000000     1.146000000    -0.786000000
H     0.099000000     2.097000000    -1.309000000
C     0.819000000     0.102000000    -1.277000000
H     1.461000000     0.359000000    -2.115000000
C     0.789000000    -1.159000000    -0.605000000
C     1.686000000    -2.300000000    -1.137000000
O     2.203000000    -2.289000000    -2.253000000
O     1.805000000    -3.310000000    -0.468000000
