17
-97.36112
C    -0.922000000     0.981000000    -0.621000000
H    -1.683000000     1.685000000    -0.948000000
C    -1.310000000    -0.009000000     0.323000000
H    -2.325000000    -0.039000000     0.709000000
C    -0.324000000    -0.915000000     0.818000000
C    -0.701000000    -1.956000000     1.799000000
H     0.022000000    -2.763000000     1.932000000
H    -0.884000000    -1.438000000     2.743000000
H    -1.640000000    -2.326000000     1.381000000
C     0.954000000    -0.851000000     0.339000000
H     1.652000000    -1.595000000     0.713000000
C     1.338000000     0.248000000    -0.525000000
H     2.333000000     0.252000000    -0.962000000
C     0.403000000     1.179000000    -1.016000000
C     0.898000000     2.238000000    -1.957000000
O     2.100000000     2.379000000    -2.177000000
O     0.081000000     2.933000000    -2.552000000
