17
-96.48130
C     0.247000000    -1.399000000    -0.264000000
H     0.297000000    -2.485000000    -0.243000000
C    -0.781000000    -0.901000000     0.521000000
H    -1.437000000    -1.636000000     0.981000000
C    -0.919000000     0.486000000     0.732000000
C    -1.840000000     0.933000000     1.781000000
H    -2.857000000     0.559000000     1.645000000
H    -1.407000000     0.771000000     2.770000000
H    -1.907000000     2.023000000     1.774000000
C    -0.063000000     1.325000000    -0.017000000
H    -0.254000000     2.395000000    -0.019000000
C     0.885000000     0.824000000    -0.865000000
H     1.472000000     1.503000000    -1.478000000
C     1.144000000    -0.537000000    -0.935000000
C     2.188000000    -1.132000000    -1.839000000
O     3.054000000    -0.413000000    -2.345000000
O     2.170000000    -2.311000000    -2.201000000
