17
-96.50348
C     0.840000000    -1.126000000     0.363000000
H     1.528000000    -1.901000000     0.691000000
C    -0.302000000    -0.680000000     1.035000000
H    -0.458000000    -1.077000000     2.035000000
C    -1.053000000     0.314000000     0.570000000
C    -2.137000000     0.800000000     1.456000000
H    -2.401000000     1.833000000     1.220000000
H    -3.049000000     0.250000000     1.216000000
H    -1.926000000     0.762000000     2.527000000
C    -0.717000000     0.931000000    -0.624000000
H    -1.232000000     1.818000000    -0.985000000
C     0.332000000     0.449000000    -1.414000000
H     0.583000000     0.762000000    -2.424000000
C     1.188000000    -0.520000000    -0.818000000
C     2.589000000    -0.829000000    -1.468000000
O     3.002000000     0.029000000    -2.226000000
O     3.214000000    -1.822000000    -1.148000000
