17
-100.16013
C     0.370000000    -1.399000000     0.358000000
H     0.568000000    -2.407000000     0.713000000
C    -0.162000000    -0.486000000     1.208000000
H    -0.489000000    -0.751000000     2.211000000
C    -0.445000000     0.823000000     0.806000000
C    -1.025000000     1.850000000     1.748000000
H    -0.256000000     2.536000000     2.109000000
H    -1.895000000     2.365000000     1.333000000
H    -1.334000000     1.400000000     2.693000000
C    -0.228000000     1.158000000    -0.553000000
H    -0.466000000     2.141000000    -0.952000000
C     0.243000000     0.204000000    -1.421000000
H     0.502000000     0.500000000    -2.434000000
C     0.582000000    -1.104000000    -1.002000000
C     1.196000000    -2.018000000    -1.987000000
O     1.664000000    -1.596000000    -3.070000000
O     1.183000000    -3.218000000    -1.763000000
