17
-97.21184
C     0.262000000    -1.415000000     0.356000000
H     0.436000000    -2.399000000     0.784000000
C    -0.307000000    -0.470000000     1.209000000
H    -0.539000000    -0.744000000     2.235000000
C    -0.592000000     0.799000000     0.739000000
C    -1.347000000     1.791000000     1.574000000
H    -1.265000000     1.529000000     2.631000000
H    -0.953000000     2.795000000     1.403000000
H    -2.361000000     1.717000000     1.176000000
C    -0.222000000     1.108000000    -0.602000000
H    -0.445000000     2.121000000    -0.927000000
C     0.450000000     0.258000000    -1.390000000
H     0.866000000     0.644000000    -2.317000000
C     0.695000000    -1.043000000    -0.958000000
C     1.547000000    -1.981000000    -1.759000000
O     1.850000000    -1.705000000    -2.911000000
O     1.919000000    -3.001000000    -1.237000000
