17
-89.18227
C     1.167000000    -0.528000000     0.767000000
H     1.978000000    -0.761000000     1.453000000
C     0.458000000     0.682000000     1.004000000
H     0.747000000     1.389000000     1.777000000
C    -0.665000000     1.019000000     0.239000000
C    -1.352000000     2.332000000     0.531000000
H    -1.471000000     2.813000000    -0.442000000
H    -2.327000000     2.031000000     0.920000000
H    -0.863000000     2.982000000     1.260000000
C    -1.125000000     0.173000000    -0.737000000
H    -2.045000000     0.388000000    -1.275000000
C    -0.354000000    -0.972000000    -1.047000000
H    -0.703000000    -1.605000000    -1.858000000
C     0.827000000    -1.315000000    -0.332000000
C     1.662000000    -2.544000000    -0.654000000
O     1.719000000    -2.993000000    -1.756000000
O     2.340000000    -3.096000000     0.157000000
