17
-90.80547
C     1.123000000    -0.814000000     0.532000000
H     1.748000000    -1.503000000     1.094000000
C     0.564000000     0.325000000     1.173000000
H     0.754000000     0.607000000     2.206000000
C    -0.403000000     1.063000000     0.490000000
C    -1.061000000     2.149000000     1.214000000
H    -1.705000000     2.787000000     0.604000000
H    -1.750000000     1.721000000     1.944000000
H    -0.371000000     2.861000000     1.671000000
C    -0.888000000     0.650000000    -0.770000000
H    -1.762000000     1.126000000    -1.208000000
C    -0.331000000    -0.480000000    -1.360000000
H    -0.725000000    -0.894000000    -2.285000000
C     0.703000000    -1.196000000    -0.765000000
C     1.229000000    -2.408000000    -1.395000000
O     0.707000000    -3.036000000    -2.287000000
O     2.167000000    -2.958000000    -0.858000000
