17
-97.05601
C     1.500000000    -0.029000000    -0.471000000
H     2.519000000     0.101000000    -0.827000000
C     0.656000000     1.158000000    -0.298000000
H     1.033000000     2.160000000    -0.488000000
C    -0.685000000     1.037000000     0.099000000
C    -1.572000000     2.225000000     0.321000000
H    -1.261000000     2.823000000     1.180000000
H    -1.703000000     2.761000000    -0.621000000
H    -2.592000000     1.871000000     0.489000000
C    -1.196000000    -0.193000000     0.348000000
H    -2.179000000    -0.329000000     0.792000000
C    -0.402000000    -1.340000000     0.189000000
H    -0.861000000    -2.282000000     0.477000000
C     0.889000000    -1.287000000    -0.274000000
C     1.766000000    -2.531000000    -0.255000000
O     1.188000000    -3.618000000     0.045000000
O     2.904000000    -2.523000000    -0.698000000
