17
-87.99821
C     1.390000000     0.490000000    -0.444000000
H     2.304000000     1.002000000    -0.734000000
C     0.126000000     1.174000000    -0.528000000
H     0.050000000     2.191000000    -0.903000000
C    -1.101000000     0.576000000    -0.178000000
C    -2.354000000     1.418000000    -0.183000000
H    -2.254000000     2.120000000    -1.012000000
H    -3.244000000     0.791000000    -0.261000000
H    -2.436000000     1.947000000     0.769000000
C    -1.019000000    -0.749000000     0.211000000
H    -1.989000000    -1.167000000     0.466000000
C     0.164000000    -1.421000000     0.411000000
H     0.068000000    -2.476000000     0.654000000
C     1.384000000    -0.752000000     0.112000000
C     2.652000000    -1.511000000     0.459000000
O     2.582000000    -2.584000000     0.991000000
O     3.681000000    -1.046000000     0.172000000
