17
-94.19358
C    -0.290000000     0.523000000     1.409000000
H    -0.568000000     0.981000000     2.354000000
C    -0.806000000     1.038000000     0.221000000
H    -1.595000000     1.786000000     0.210000000
C    -0.321000000     0.535000000    -1.021000000
C    -0.966000000     1.061000000    -2.314000000
H    -2.001000000     1.359000000    -2.134000000
H    -0.390000000     1.925000000    -2.651000000
H    -0.903000000     0.352000000    -3.143000000
C     0.500000000    -0.599000000    -1.088000000
H     0.853000000    -1.068000000    -2.003000000
C     1.015000000    -1.106000000     0.088000000
H     1.694000000    -1.955000000     0.109000000
C     0.573000000    -0.572000000     1.311000000
C     0.973000000    -1.236000000     2.557000000
O     1.876000000    -2.008000000     2.520000000
O     0.363000000    -1.015000000     3.578000000
