17
-97.75075
C     1.167000000     0.693000000    -0.693000000
H     1.881000000     1.338000000    -1.200000000
C    -0.047000000     1.308000000    -0.305000000
H    -0.127000000     2.371000000    -0.519000000
C    -0.995000000     0.610000000     0.433000000
C    -2.369000000     1.206000000     0.758000000
H    -2.652000000     0.925000000     1.775000000
H    -2.425000000     2.290000000     0.634000000
H    -3.043000000     0.796000000     0.003000000
C    -0.768000000    -0.722000000     0.759000000
H    -1.561000000    -1.292000000     1.237000000
C     0.350000000    -1.361000000     0.230000000
H     0.389000000    -2.441000000     0.342000000
C     1.400000000    -0.668000000    -0.405000000
C     2.598000000    -1.455000000    -0.959000000
O     2.763000000    -2.543000000    -0.362000000
O     3.445000000    -1.049000000    -1.724000000
