17
-95.70441
C     1.170000000     0.673000000    -0.688000000
H     2.000000000     1.263000000    -1.068000000
C    -0.013000000     1.262000000    -0.212000000
H    -0.153000000     2.337000000    -0.298000000
C    -1.027000000     0.522000000     0.393000000
C    -2.208000000     1.332000000     0.970000000
H    -3.185000000     0.846000000     0.957000000
H    -1.995000000     1.562000000     2.016000000
H    -2.216000000     2.282000000     0.430000000
C    -0.865000000    -0.841000000     0.562000000
H    -1.667000000    -1.414000000     1.020000000
C     0.222000000    -1.481000000     0.011000000
H     0.334000000    -2.562000000    -0.013000000
C     1.303000000    -0.744000000    -0.534000000
C     2.499000000    -1.457000000    -0.980000000
O     2.457000000    -2.666000000    -0.879000000
O     3.338000000    -0.913000000    -1.692000000
