17
-95.04714
C     0.475000000     0.868000000    -1.108000000
H     0.805000000     1.652000000    -1.786000000
C    -0.419000000     1.254000000    -0.097000000
H    -0.759000000     2.282000000     0.010000000
C    -0.926000000     0.277000000     0.760000000
C    -1.825000000     0.666000000     1.938000000
H    -1.191000000     0.477000000     2.806000000
H    -1.982000000     1.742000000     2.043000000
H    -2.792000000     0.159000000     1.924000000
C    -0.457000000    -1.025000000     0.699000000
H    -0.906000000    -1.742000000     1.381000000
C     0.489000000    -1.378000000    -0.274000000
H     0.968000000    -2.354000000    -0.270000000
C     0.997000000    -0.419000000    -1.193000000
C     2.167000000    -0.760000000    -2.068000000
O     2.785000000    -1.760000000    -1.896000000
O     2.566000000     0.061000000    -2.873000000
