17
-80.57584
C     0.607000000     0.298000000    -1.310000000
H     1.075000000     0.834000000    -2.132000000
C    -0.334000000     1.138000000    -0.632000000
H    -0.601000000     2.140000000    -0.958000000
C    -0.842000000     0.701000000     0.571000000
C    -1.881000000     1.600000000     1.265000000
H    -1.404000000     2.069000000     2.127000000
H    -2.133000000     2.320000000     0.484000000
H    -2.755000000     1.014000000     1.558000000
C    -0.445000000    -0.560000000     1.025000000
H    -0.875000000    -0.894000000     1.966000000
C     0.440000000    -1.425000000     0.386000000
H     0.740000000    -2.338000000     0.894000000
C     1.035000000    -0.929000000    -0.753000000
C     2.187000000    -1.754000000    -1.316000000
O     2.469000000    -2.789000000    -0.855000000
O     2.714000000    -1.429000000    -2.327000000
