17
-96.33631
C     0.481000000     0.590000000    -1.347000000
H     0.743000000     1.084000000    -2.279000000
C    -0.107000000     1.288000000    -0.305000000
H    -0.124000000     2.375000000    -0.315000000
C    -0.400000000     0.720000000     0.937000000
C    -1.029000000     1.438000000     2.112000000
H    -0.799000000     2.501000000     2.013000000
H    -2.106000000     1.293000000     2.009000000
H    -0.654000000     0.898000000     2.984000000
C    -0.305000000    -0.660000000     1.051000000
H    -0.551000000    -1.272000000     1.915000000
C     0.163000000    -1.413000000    -0.013000000
H     0.261000000    -2.464000000     0.246000000
C     0.583000000    -0.822000000    -1.181000000
C     1.138000000    -1.637000000    -2.341000000
O     1.106000000    -2.846000000    -2.184000000
O     1.606000000    -1.076000000    -3.309000000
