17
-98.19987
C     0.650000000     1.077000000    -0.786000000
H     1.078000000     1.938000000    -1.294000000
C     0.819000000     0.924000000     0.599000000
H     1.531000000     1.558000000     1.121000000
C     0.096000000    -0.091000000     1.206000000
C     0.236000000    -0.361000000     2.715000000
H    -0.761000000    -0.333000000     3.161000000
H     0.722000000    -1.308000000     2.959000000
H     0.829000000     0.438000000     3.164000000
C    -0.714000000    -0.956000000     0.494000000
H    -1.268000000    -1.824000000     0.843000000
C    -0.818000000    -0.768000000    -0.879000000
H    -1.305000000    -1.551000000    -1.455000000
C    -0.136000000     0.263000000    -1.565000000
C    -0.296000000     0.319000000    -3.026000000
O    -1.100000000    -0.408000000    -3.632000000
O     0.433000000     1.086000000    -3.620000000
