17
-91.54255
C     1.226000000    -0.524000000    -0.758000000
H     2.120000000    -0.919000000    -1.233000000
C     0.906000000    -0.611000000     0.656000000
H     1.628000000    -0.963000000     1.389000000
C    -0.196000000    -0.023000000     1.181000000
C    -0.347000000     0.052000000     2.706000000
H    -0.800000000    -0.839000000     3.145000000
H     0.606000000     0.136000000     3.234000000
H    -0.939000000     0.920000000     3.004000000
C    -1.153000000     0.534000000     0.327000000
H    -2.082000000     0.814000000     0.817000000
C    -0.931000000     0.553000000    -1.020000000
H    -1.728000000     0.953000000    -1.641000000
C     0.205000000     0.018000000    -1.575000000
C     0.406000000     0.000000000    -3.021000000
O    -0.463000000    -0.294000000    -3.809000000
O     1.545000000     0.198000000    -3.399000000
