17
-94.74982
C     1.201000000    -0.089000000    -0.839000000
H     2.113000000    -0.139000000    -1.428000000
C     1.152000000    -0.194000000     0.546000000
H     2.101000000    -0.304000000     1.064000000
C    -0.015000000    -0.104000000     1.208000000
C    -0.063000000    -0.029000000     2.741000000
H    -0.201000000     0.950000000     3.205000000
H    -0.863000000    -0.717000000     3.023000000
H     0.911000000    -0.350000000     3.114000000
C    -1.255000000     0.019000000     0.517000000
H    -2.212000000     0.023000000     1.032000000
C    -1.182000000     0.158000000    -0.861000000
H    -2.088000000     0.397000000    -1.412000000
C     0.041000000     0.080000000    -1.579000000
C     0.121000000     0.140000000    -3.029000000
O    -0.932000000     0.080000000    -3.708000000
O     1.177000000     0.084000000    -3.594000000
