17
-94.98482
C     0.210000000    -0.952000000    -1.187000000
H     0.512000000    -1.580000000    -2.021000000
C     0.385000000    -1.265000000     0.181000000
H     0.884000000    -2.166000000     0.528000000
C     0.219000000    -0.317000000     1.165000000
C     0.508000000    -0.495000000     2.626000000
H     1.063000000     0.382000000     2.966000000
H    -0.393000000    -0.577000000     3.237000000
H     1.120000000    -1.370000000     2.854000000
C    -0.294000000     0.910000000     0.848000000
H    -0.377000000     1.661000000     1.629000000
C    -0.501000000     1.256000000    -0.507000000
H    -0.798000000     2.244000000    -0.850000000
C    -0.290000000     0.296000000    -1.509000000
C    -0.616000000     0.563000000    -2.937000000
O    -1.011000000     1.690000000    -3.134000000
O    -0.624000000    -0.284000000    -3.882000000
