17
-92.03114
C    -0.181000000    -1.370000000    -0.518000000
H    -0.406000000    -2.395000000    -0.802000000
C     0.013000000    -1.075000000     0.833000000
H    -0.080000000    -1.783000000     1.653000000
C     0.234000000     0.272000000     1.161000000
C     0.363000000     0.731000000     2.605000000
H     1.316000000     1.093000000     2.996000000
H    -0.450000000     1.451000000     2.715000000
H     0.169000000    -0.144000000     3.230000000
C     0.248000000     1.238000000     0.186000000
H     0.353000000     2.245000000     0.584000000
C     0.015000000     0.947000000    -1.174000000
H     0.118000000     1.703000000    -1.948000000
C    -0.224000000    -0.349000000    -1.500000000
C    -0.387000000    -0.801000000    -2.972000000
O    -0.412000000     0.123000000    -3.773000000
O    -0.691000000    -1.893000000    -3.282000000
