17
-92.37176
C     0.811000000    -1.203000000    -0.028000000
H     1.529000000    -2.014000000     0.064000000
C     1.083000000    -0.091000000     0.742000000
H     1.919000000    -0.077000000     1.436000000
C     0.271000000     0.961000000     0.689000000
C     0.655000000     2.278000000     1.418000000
H    -0.116000000     3.047000000     1.340000000
H     0.896000000     2.087000000     2.466000000
H     1.533000000     2.673000000     0.903000000
C    -0.866000000     0.931000000    -0.127000000
H    -1.504000000     1.806000000    -0.221000000
C    -1.199000000    -0.198000000    -0.855000000
H    -2.145000000    -0.192000000    -1.389000000
C    -0.393000000    -1.329000000    -0.782000000
C    -0.717000000    -2.567000000    -1.650000000
O    -1.284000000    -2.364000000    -2.670000000
O    -0.467000000    -3.747000000    -1.328000000
