17
-89.95917
C     0.261000000    -1.399000000    -0.118000000
H     0.462000000    -2.451000000     0.068000000
C     0.858000000    -0.545000000     0.811000000
H     1.569000000    -0.940000000     1.532000000
C     0.534000000     0.788000000     0.709000000
C     1.195000000     1.745000000     1.614000000
H     0.972000000     1.512000000     2.658000000
H     2.283000000     1.762000000     1.519000000
H     0.926000000     2.776000000     1.377000000
C    -0.501000000     1.233000000    -0.073000000
H    -0.722000000     2.293000000     0.018000000
C    -1.065000000     0.393000000    -1.036000000
H    -1.834000000     0.741000000    -1.721000000
C    -0.717000000    -0.978000000    -1.024000000
C    -1.239000000    -2.041000000    -1.873000000
O    -2.321000000    -1.829000000    -2.356000000
O    -0.653000000    -3.062000000    -2.111000000
