17
-89.41441
C     0.602000000    -1.350000000     0.093000000
H     1.080000000    -2.322000000     0.183000000
C     1.284000000    -0.156000000     0.421000000
H     2.268000000    -0.116000000     0.882000000
C     0.568000000     1.041000000     0.420000000
C     1.199000000     2.337000000     0.812000000
H     0.790000000     2.738000000     1.741000000
H     2.289000000     2.277000000     0.786000000
H     0.950000000     3.060000000     0.032000000
C    -0.738000000     1.006000000    -0.142000000
H    -1.204000000     1.939000000    -0.449000000
C    -1.343000000    -0.161000000    -0.517000000
H    -2.268000000    -0.171000000    -1.086000000
C    -0.683000000    -1.366000000    -0.333000000
C    -1.384000000    -2.543000000    -0.861000000
O    -2.409000000    -2.567000000    -1.522000000
O    -1.005000000    -3.643000000    -0.454000000
