17
-94.31911
C    -0.759000000    -1.251000000     0.464000000
H    -1.172000000    -2.214000000     0.751000000
C     0.470000000    -0.870000000     0.938000000
H     0.933000000    -1.494000000     1.697000000
C     1.125000000     0.294000000     0.447000000
C     2.481000000     0.799000000     0.948000000
H     3.141000000     0.999000000     0.101000000
H     2.300000000     1.729000000     1.492000000
H     2.928000000     0.145000000     1.699000000
C     0.415000000     1.131000000    -0.446000000
H     0.847000000     2.051000000    -0.833000000
C    -0.867000000     0.805000000    -0.885000000
H    -1.390000000     1.435000000    -1.600000000
C    -1.418000000    -0.431000000    -0.508000000
C    -2.730000000    -0.867000000    -1.175000000
O    -3.097000000    -0.331000000    -2.201000000
O    -3.202000000    -1.928000000    -0.887000000
