17
-94.57227
C    -0.066000000    -0.316000000     1.384000000
H    -0.245000000    -0.545000000     2.431000000
C    -1.111000000     0.233000000     0.663000000
H    -2.059000000     0.336000000     1.184000000
C    -0.930000000     0.452000000    -0.663000000
C    -2.113000000     0.862000000    -1.461000000
H    -1.865000000     0.551000000    -2.478000000
H    -3.035000000     0.350000000    -1.175000000
H    -2.171000000     1.949000000    -1.380000000
C     0.320000000     0.292000000    -1.238000000
H     0.393000000     0.503000000    -2.302000000
C     1.364000000    -0.225000000    -0.496000000
H     2.239000000    -0.567000000    -1.042000000
C     1.207000000    -0.525000000     0.869000000
C     2.362000000    -1.020000000     1.674000000
O     3.488000000    -0.810000000     1.257000000
O     2.216000000    -1.513000000     2.772000000
