17
-87.65829
C     0.077000000    -1.434000000    -0.236000000
H     0.295000000    -2.418000000    -0.642000000
C     1.170000000    -0.589000000    -0.074000000
H     2.157000000    -0.899000000    -0.407000000
C     0.990000000     0.683000000     0.301000000
C     2.142000000     1.601000000     0.110000000
H     1.941000000     2.572000000     0.567000000
H     3.041000000     1.253000000     0.623000000
H     2.324000000     1.737000000    -0.959000000
C    -0.310000000     1.192000000     0.425000000
H    -0.366000000     2.270000000     0.548000000
C    -1.421000000     0.377000000     0.194000000
H    -2.378000000     0.862000000     0.374000000
C    -1.252000000    -0.951000000    -0.071000000
C    -2.472000000    -1.853000000    -0.267000000
O    -3.523000000    -1.362000000    -0.511000000
O    -2.418000000    -3.038000000     0.024000000
