17
-100.51418
C    -0.325000000    -1.394000000     0.084000000
H    -0.391000000    -2.474000000    -0.015000000
C     0.890000000    -0.838000000     0.417000000
H     1.727000000    -1.439000000     0.762000000
C     1.067000000     0.538000000     0.357000000
C     2.445000000     1.158000000     0.541000000
H     3.016000000     0.968000000    -0.371000000
H     2.363000000     2.216000000     0.799000000
H     3.034000000     0.563000000     1.242000000
C    -0.003000000     1.313000000    -0.058000000
H     0.075000000     2.389000000    -0.191000000
C    -1.258000000     0.777000000    -0.305000000
H    -2.154000000     1.367000000    -0.479000000
C    -1.416000000    -0.599000000    -0.313000000
C    -2.728000000    -1.333000000    -0.710000000
O    -3.515000000    -0.724000000    -1.379000000
O    -2.819000000    -2.495000000    -0.373000000
