17
-94.35205
C    -1.247000000    -0.283000000     0.751000000
H    -2.052000000    -0.518000000     1.442000000
C    -0.100000000     0.355000000     1.225000000
H     0.028000000     0.801000000     2.208000000
C     1.028000000     0.532000000     0.406000000
C     2.324000000     1.224000000     0.902000000
H     3.277000000     0.698000000     0.821000000
H     2.374000000     2.242000000     0.510000000
H     2.267000000     1.387000000     1.980000000
C     0.952000000     0.137000000    -0.931000000
H     1.795000000     0.391000000    -1.569000000
C    -0.254000000    -0.455000000    -1.384000000
H    -0.410000000    -0.797000000    -2.404000000
C    -1.308000000    -0.642000000    -0.572000000
C    -2.543000000    -1.470000000    -1.029000000
O    -2.562000000    -2.248000000    -1.984000000
O    -3.576000000    -1.362000000    -0.366000000
