17
-92.87598
C    -1.352000000    -0.460000000     0.197000000
H    -2.364000000    -0.812000000     0.381000000
C    -0.542000000     0.079000000     1.157000000
H    -0.870000000     0.175000000     2.188000000
C     0.656000000     0.619000000     0.802000000
C     1.459000000     1.260000000     1.937000000
H     1.716000000     0.592000000     2.762000000
H     2.374000000     1.643000000     1.481000000
H     0.951000000     2.129000000     2.360000000
C     1.220000000     0.324000000    -0.457000000
H     2.261000000     0.574000000    -0.646000000
C     0.472000000    -0.351000000    -1.405000000
H     0.840000000    -0.609000000    -2.394000000
C    -0.873000000    -0.655000000    -1.093000000
C    -1.725000000    -1.308000000    -2.145000000
O    -1.422000000    -1.396000000    -3.301000000
O    -2.796000000    -1.798000000    -1.828000000
