17
-96.59708
C    -0.295000000    -0.556000000     1.362000000
H    -0.591000000    -1.074000000     2.271000000
C    -1.280000000    -0.053000000     0.424000000
H    -2.337000000    -0.260000000     0.573000000
C    -0.846000000     0.535000000    -0.751000000
C    -1.760000000     0.881000000    -1.885000000
H    -1.261000000     0.851000000    -2.855000000
H    -2.666000000     0.280000000    -1.988000000
H    -2.120000000     1.902000000    -1.736000000
C     0.510000000     0.622000000    -1.004000000
H     0.795000000     1.144000000    -1.914000000
C     1.413000000     0.187000000    -0.054000000
H     2.465000000     0.337000000    -0.281000000
C     1.051000000    -0.451000000     1.168000000
C     2.037000000    -1.196000000     2.026000000
O     3.225000000    -1.111000000     1.777000000
O     1.652000000    -2.033000000     2.868000000
