17
-95.77034
C    -1.431000000     0.104000000     0.163000000
H    -2.450000000     0.327000000     0.469000000
C    -0.496000000     0.929000000     0.795000000
H    -0.873000000     1.747000000     1.403000000
C     0.883000000     0.712000000     0.528000000
C     1.867000000     1.546000000     1.254000000
H     2.870000000     1.597000000     0.825000000
H     1.433000000     2.547000000     1.307000000
H     1.946000000     1.153000000     2.270000000
C     1.224000000    -0.230000000    -0.486000000
H     2.274000000    -0.398000000    -0.715000000
C     0.284000000    -1.023000000    -1.106000000
H     0.497000000    -1.849000000    -1.780000000
C    -1.001000000    -0.931000000    -0.704000000
C    -2.040000000    -1.860000000    -1.229000000
O    -1.781000000    -2.735000000    -2.059000000
O    -3.204000000    -1.635000000    -0.932000000
