17
-89.59001
C    -1.324000000     0.224000000    -0.541000000
H    -2.163000000     0.513000000    -1.169000000
C    -0.521000000     1.187000000     0.085000000
H    -0.914000000     2.200000000     0.041000000
C     0.730000000     0.840000000     0.538000000
C     1.587000000     1.939000000     1.162000000
H     2.338000000     2.293000000     0.453000000
H     0.968000000     2.832000000     1.275000000
H     1.959000000     1.660000000     2.150000000
C     1.126000000    -0.474000000     0.561000000
H     2.097000000    -0.820000000     0.907000000
C     0.240000000    -1.481000000     0.006000000
H     0.476000000    -2.542000000     0.019000000
C    -0.926000000    -1.097000000    -0.609000000
C    -1.667000000    -2.124000000    -1.455000000
O    -1.161000000    -3.143000000    -1.849000000
O    -2.848000000    -2.002000000    -1.572000000
