17
-98.03649
C    -1.246000000     0.438000000    -0.600000000
H    -2.138000000     0.860000000    -1.057000000
C    -0.304000000     1.215000000     0.045000000
H    -0.610000000     2.257000000     0.108000000
C     0.815000000     0.662000000     0.667000000
C     1.907000000     1.528000000     1.323000000
H     2.405000000     2.174000000     0.597000000
H     1.495000000     2.250000000     2.031000000
H     2.661000000     1.008000000     1.918000000
C     0.990000000    -0.672000000     0.554000000
H     1.883000000    -1.126000000     0.977000000
C     0.029000000    -1.484000000    -0.114000000
H     0.183000000    -2.558000000    -0.174000000
C    -1.048000000    -0.909000000    -0.813000000
C    -2.113000000    -1.705000000    -1.561000000
O    -1.781000000    -2.818000000    -1.946000000
O    -3.136000000    -1.120000000    -1.953000000
