17
-97.28456
C    -1.393000000    -0.591000000    -0.109000000
H    -2.447000000    -0.856000000    -0.116000000
C    -0.929000000     0.274000000     0.994000000
H    -1.602000000     0.530000000     1.807000000
C     0.421000000     0.671000000     0.926000000
C     0.929000000     1.604000000     2.035000000
H     0.129000000     1.913000000     2.709000000
H     1.748000000     1.042000000     2.489000000
H     1.393000000     2.489000000     1.596000000
C     1.276000000     0.282000000    -0.103000000
H     2.231000000     0.801000000    -0.136000000
C     0.797000000    -0.400000000    -1.214000000
H     1.508000000    -0.759000000    -1.955000000
C    -0.510000000    -0.941000000    -1.153000000
C    -1.043000000    -1.831000000    -2.264000000
O    -0.283000000    -1.979000000    -3.251000000
O    -2.227000000    -2.255000000    -2.262000000
