17
-91.75376
C    -0.307000000    -1.268000000     0.577000000
H    -0.580000000    -2.309000000     0.733000000
C    -1.017000000    -0.609000000    -0.413000000
H    -1.895000000    -1.030000000    -0.895000000
C    -0.629000000     0.633000000    -0.844000000
C    -1.523000000     1.427000000    -1.862000000
H    -1.423000000     1.174000000    -2.919000000
H    -2.565000000     1.188000000    -1.639000000
H    -1.434000000     2.512000000    -1.769000000
C     0.559000000     1.168000000    -0.325000000
H     0.845000000     2.142000000    -0.714000000
C     1.338000000     0.467000000     0.653000000
H     2.302000000     0.856000000     0.972000000
C     0.928000000    -0.815000000     1.099000000
C     1.646000000    -1.662000000     2.127000000
O     2.678000000    -1.267000000     2.560000000
O     1.072000000    -2.614000000     2.662000000
