17
-91.93104
C    -1.015000000    -0.935000000    -0.388000000
H    -1.770000000    -1.704000000    -0.526000000
C    -1.069000000    -0.117000000     0.767000000
H    -1.842000000    -0.257000000     1.519000000
C     0.005000000     0.740000000     1.029000000
C     0.002000000     1.435000000     2.300000000
H    -0.401000000     2.443000000     2.182000000
H    -0.662000000     0.918000000     2.996000000
H     1.051000000     1.405000000     2.604000000
C     0.996000000     0.937000000     0.063000000
H     1.856000000     1.596000000     0.140000000
C     0.950000000     0.195000000    -1.113000000
H     1.764000000     0.264000000    -1.829000000
C    -0.001000000    -0.862000000    -1.304000000
C     0.076000000    -1.833000000    -2.437000000
O     0.931000000    -1.679000000    -3.338000000
O    -0.865000000    -2.541000000    -2.671000000
