17
-90.37117
C    -1.321000000    -0.463000000    -0.281000000
H    -2.367000000    -0.714000000    -0.437000000
C    -0.922000000     0.469000000     0.746000000
H    -1.746000000     0.864000000     1.334000000
C     0.379000000     0.803000000     0.889000000
C     0.613000000     1.625000000     2.067000000
H    -0.281000000     1.803000000     2.669000000
H     1.484000000     1.382000000     2.680000000
H     0.863000000     2.641000000     1.754000000
C     1.268000000     0.294000000     0.023000000
H     2.333000000     0.465000000     0.155000000
C     0.909000000    -0.611000000    -1.018000000
H     1.684000000    -1.085000000    -1.615000000
C    -0.401000000    -0.931000000    -1.228000000
C    -0.730000000    -1.938000000    -2.273000000
O     0.014000000    -1.986000000    -3.238000000
O    -1.782000000    -2.611000000    -2.228000000
