17
-96.46461
C    -0.291000000     0.954000000    -1.067000000
H    -0.667000000     1.700000000    -1.763000000
C    -0.410000000     1.215000000     0.268000000
H    -0.826000000     2.153000000     0.625000000
C     0.028000000     0.260000000     1.197000000
C     0.053000000     0.643000000     2.673000000
H    -0.606000000     1.473000000     2.936000000
H    -0.212000000    -0.222000000     3.285000000
H     1.116000000     0.823000000     2.841000000
C     0.477000000    -0.953000000     0.754000000
H     0.658000000    -1.708000000     1.514000000
C     0.518000000    -1.262000000    -0.601000000
H     0.649000000    -2.261000000    -1.010000000
C     0.188000000    -0.258000000    -1.600000000
C    -0.118000000    -0.725000000    -2.988000000
O    -0.252000000    -1.940000000    -3.204000000
O    -0.311000000     0.111000000    -3.865000000
