17
-93.70954
C    -0.505000000     0.717000000    -1.154000000
H    -0.791000000     1.394000000    -1.955000000
C     0.168000000     1.310000000    -0.091000000
H     0.198000000     2.396000000    -0.043000000
C     0.491000000     0.517000000     1.029000000
C     0.929000000     1.175000000     2.296000000
H     1.468000000     0.343000000     2.753000000
H     1.556000000     2.065000000     2.206000000
H     0.072000000     1.382000000     2.940000000
C     0.299000000    -0.908000000     0.959000000
H     0.389000000    -1.535000000     1.842000000
C    -0.143000000    -1.451000000    -0.232000000
H    -0.205000000    -2.535000000    -0.284000000
C    -0.620000000    -0.723000000    -1.276000000
C    -1.016000000    -1.252000000    -2.646000000
O    -0.998000000    -2.450000000    -2.830000000
O    -1.285000000    -0.452000000    -3.514000000
