17
-92.21158
C    -0.881000000     0.819000000    -0.800000000
H    -1.538000000     1.520000000    -1.308000000
C    -0.187000000     1.299000000     0.318000000
H    -0.310000000     2.319000000     0.675000000
C     0.627000000     0.402000000     0.950000000
C     1.307000000     0.835000000     2.284000000
H     2.093000000     0.094000000     2.443000000
H     1.748000000     1.828000000     2.180000000
H     0.707000000     0.661000000     3.180000000
C     0.771000000    -0.968000000     0.493000000
H     1.472000000    -1.655000000     0.959000000
C     0.053000000    -1.326000000    -0.623000000
H     0.221000000    -2.353000000    -0.938000000
C    -0.875000000    -0.495000000    -1.262000000
C    -1.539000000    -0.897000000    -2.548000000
O    -1.560000000    -2.057000000    -2.870000000
O    -2.110000000    -0.031000000    -3.133000000
