17
-85.08499
C    -0.466000000     0.497000000    -1.273000000
H    -0.551000000     0.818000000    -2.308000000
C     0.413000000     1.163000000    -0.438000000
H     1.071000000     1.917000000    -0.862000000
C     0.670000000     0.666000000     0.801000000
C     1.719000000     1.301000000     1.687000000
H     1.958000000     2.257000000     1.217000000
H     1.227000000     1.372000000     2.659000000
H     2.644000000     0.722000000     1.671000000
C     0.150000000    -0.570000000     1.180000000
H     0.440000000    -0.995000000     2.138000000
C    -0.731000000    -1.329000000     0.376000000
H    -1.250000000    -2.242000000     0.654000000
C    -1.027000000    -0.736000000    -0.851000000
C    -1.964000000    -1.379000000    -1.907000000
O    -2.185000000    -2.545000000    -1.737000000
O    -2.112000000    -0.925000000    -3.012000000
