17
-86.79010
C     0.748000000    -0.566000000    -1.202000000
H     1.377000000    -0.899000000    -2.024000000
C     1.230000000     0.142000000    -0.081000000
H     2.290000000     0.382000000    -0.040000000
C     0.477000000     0.621000000     0.982000000
C     1.050000000     1.415000000     2.025000000
H     0.489000000     1.512000000     2.957000000
H     1.983000000     0.933000000     2.324000000
H     1.369000000     2.380000000     1.625000000
C    -0.869000000     0.490000000     0.934000000
H    -1.558000000     0.915000000     1.659000000
C    -1.406000000    -0.323000000    -0.108000000
H    -2.484000000    -0.417000000    -0.208000000
C    -0.576000000    -0.982000000    -1.094000000
C    -1.192000000    -1.679000000    -2.305000000
O    -2.400000000    -1.734000000    -2.296000000
O    -0.532000000    -2.188000000    -3.153000000
