17
-97.42313
C     0.935000000    -0.502000000    -1.043000000
H     1.676000000    -0.750000000    -1.799000000
C     0.878000000     0.783000000    -0.552000000
H     1.629000000     1.539000000    -0.768000000
C    -0.088000000     1.172000000     0.399000000
C    -0.064000000     2.552000000     0.975000000
H    -1.043000000     2.739000000     1.422000000
H     0.614000000     2.614000000     1.828000000
H     0.285000000     3.356000000     0.324000000
C    -1.064000000     0.240000000     0.785000000
H    -1.881000000     0.491000000     1.457000000
C    -0.936000000    -1.091000000     0.347000000
H    -1.527000000    -1.931000000     0.704000000
C     0.010000000    -1.432000000    -0.643000000
C     0.156000000    -2.860000000    -1.049000000
O    -0.292000000    -3.738000000    -0.318000000
O     0.710000000    -3.181000000    -2.066000000
