17
-89.84927
C     0.716000000    -0.942000000    -0.830000000
H     1.338000000    -1.592000000    -1.440000000
C     0.940000000     0.389000000    -0.765000000
H     1.788000000     0.763000000    -1.334000000
C     0.236000000     1.146000000     0.182000000
C     0.687000000     2.604000000     0.370000000
H     1.736000000     2.685000000     0.662000000
H     0.672000000     3.143000000    -0.580000000
H     0.062000000     3.088000000     1.123000000
C    -0.857000000     0.633000000     0.807000000
H    -1.424000000     1.120000000     1.596000000
C    -1.266000000    -0.644000000     0.562000000
H    -2.189000000    -1.103000000     0.908000000
C    -0.453000000    -1.458000000    -0.280000000
C    -0.609000000    -2.881000000    -0.291000000
O    -1.062000000    -3.451000000     0.671000000
O    -0.314000000    -3.505000000    -1.356000000
