17
-83.64425
C     0.490000000    -0.287000000    -1.397000000
H     0.629000000    -0.341000000    -2.474000000
C     0.551000000     0.970000000    -0.696000000
H     0.853000000     1.867000000    -1.230000000
C     0.192000000     1.134000000     0.644000000
C     0.045000000     2.401000000     1.365000000
H     0.116000000     3.224000000     0.651000000
H    -0.911000000     2.563000000     1.866000000
H     0.901000000     2.464000000     2.040000000
C    -0.182000000    -0.051000000     1.281000000
H    -0.543000000    -0.113000000     2.305000000
C    -0.368000000    -1.316000000     0.636000000
H    -0.721000000    -2.234000000     1.097000000
C    -0.051000000    -1.401000000    -0.727000000
C    -0.355000000    -2.615000000    -1.530000000
O    -0.151000000    -3.754000000    -1.123000000
O    -0.490000000    -2.504000000    -2.701000000
