17
-96.46573
C     0.895000000    -0.437000000     1.077000000
H     1.673000000    -0.599000000     1.819000000
C    -0.188000000     0.396000000     1.238000000
H    -0.394000000     0.715000000     2.256000000
C    -0.938000000     0.759000000     0.126000000
C    -2.089000000     1.717000000     0.286000000
H    -2.127000000     2.217000000     1.257000000
H    -2.220000000     2.567000000    -0.387000000
H    -3.005000000     1.132000000     0.175000000
C    -0.741000000     0.111000000    -1.135000000
H    -1.351000000     0.382000000    -1.993000000
C     0.276000000    -0.773000000    -1.225000000
H     0.568000000    -1.157000000    -2.199000000
C     1.188000000    -0.996000000    -0.168000000
C     2.448000000    -1.807000000    -0.312000000
O     2.631000000    -2.412000000    -1.357000000
O     3.369000000    -1.813000000     0.541000000
