17
-97.31329
C    -0.907000000    -0.009000000    -1.258000000
H    -1.623000000    -0.059000000    -2.074000000
C    -1.011000000     0.827000000    -0.112000000
H    -1.734000000     1.639000000    -0.107000000
C    -0.055000000     0.799000000     0.923000000
C    -0.095000000     1.825000000     2.023000000
H    -0.106000000     1.266000000     2.961000000
H     0.793000000     2.457000000     2.081000000
H    -1.010000000     2.421000000     2.032000000
C     0.941000000    -0.082000000     0.909000000
H     1.663000000    -0.131000000     1.719000000
C     0.968000000    -1.063000000    -0.111000000
H     1.796000000    -1.767000000    -0.132000000
C     0.040000000    -1.035000000    -1.180000000
C     0.079000000    -2.122000000    -2.246000000
O     1.120000000    -2.758000000    -2.401000000
O    -0.852000000    -2.208000000    -3.021000000
