17
-92.45673
C    -0.365000000    -0.193000000    -1.477000000
H    -0.721000000    -0.306000000    -2.498000000
C    -0.479000000     1.020000000    -0.736000000
H    -0.913000000     1.886000000    -1.229000000
C    -0.182000000     1.029000000     0.622000000
C    -0.436000000     2.247000000     1.480000000
H    -0.853000000     1.843000000     2.405000000
H     0.551000000     2.624000000     1.757000000
H    -1.165000000     2.956000000     1.084000000
C     0.346000000    -0.034000000     1.235000000
H     0.612000000     0.065000000     2.284000000
C     0.620000000    -1.192000000     0.513000000
H     0.994000000    -2.072000000     1.030000000
C     0.168000000    -1.318000000    -0.821000000
C     0.537000000    -2.533000000    -1.640000000
O     0.876000000    -3.560000000    -1.147000000
O     0.408000000    -2.455000000    -2.862000000
