17
-95.37398
C    -0.023000000     0.131000000    -1.406000000
H    -0.036000000     0.331000000    -2.474000000
C    -0.730000000     0.906000000    -0.527000000
H    -1.422000000     1.651000000    -0.911000000
C    -0.586000000     0.684000000     0.824000000
C    -1.415000000     1.588000000     1.742000000
H    -0.996000000     1.801000000     2.728000000
H    -1.825000000     2.480000000     1.263000000
H    -2.312000000     1.043000000     2.045000000
C     0.341000000    -0.282000000     1.260000000
H     0.540000000    -0.363000000     2.326000000
C     1.013000000    -1.100000000     0.357000000
H     1.593000000    -1.915000000     0.782000000
C     0.801000000    -0.878000000    -1.025000000
C     1.511000000    -1.753000000    -2.088000000
O     2.012000000    -2.819000000    -1.654000000
O     1.531000000    -1.497000000    -3.240000000
