17
-99.08432
C     0.172000000     0.052000000    -1.435000000
H     0.229000000     0.332000000    -2.484000000
C    -1.045000000     0.220000000    -0.784000000
H    -1.933000000     0.480000000    -1.356000000
C    -1.113000000     0.097000000     0.581000000
C    -2.341000000     0.484000000     1.298000000
H    -3.146000000     0.492000000     0.560000000
H    -2.578000000    -0.218000000     2.101000000
H    -2.253000000     1.503000000     1.679000000
C     0.055000000    -0.258000000     1.284000000
H    -0.109000000    -0.397000000     2.350000000
C     1.218000000    -0.504000000     0.571000000
H     2.108000000    -0.791000000     1.125000000
C     1.350000000    -0.295000000    -0.788000000
C     2.750000000    -0.377000000    -1.398000000
O     3.801000000    -0.446000000    -0.698000000
O     2.836000000    -0.376000000    -2.613000000
