17
-90.53310
C     0.488000000     0.660000000    -1.236000000
H     0.728000000     0.970000000    -2.250000000
C    -0.812000000     0.403000000    -0.924000000
H    -1.565000000     0.378000000    -1.708000000
C    -1.168000000    -0.093000000     0.325000000
C    -2.651000000    -0.444000000     0.682000000
H    -2.756000000    -1.359000000     1.269000000
H    -2.908000000     0.427000000     1.290000000
H    -3.291000000    -0.517000000    -0.200000000
C    -0.155000000    -0.363000000     1.261000000
H    -0.391000000    -0.751000000     2.248000000
C     1.149000000    -0.144000000     0.915000000
H     1.944000000    -0.403000000     1.609000000
C     1.472000000     0.322000000    -0.323000000
C     2.929000000     0.278000000    -0.825000000
O     3.900000000     0.317000000    -0.118000000
O     3.091000000     0.326000000    -2.016000000
