17
-89.55410
C     0.584000000    -0.019000000    -1.387000000
H     0.758000000    -0.173000000    -2.449000000
C    -0.768000000     0.144000000    -0.994000000
H    -1.537000000     0.219000000    -1.759000000
C    -1.157000000     0.198000000     0.326000000
C    -2.668000000     0.395000000     0.484000000
H    -3.257000000     0.244000000    -0.423000000
H    -2.964000000    -0.384000000     1.190000000
H    -2.828000000     1.407000000     0.862000000
C    -0.228000000     0.163000000     1.349000000
H    -0.524000000     0.151000000     2.395000000
C     1.134000000     0.008000000     0.964000000
H     1.872000000    -0.061000000     1.759000000
C     1.540000000    -0.105000000    -0.350000000
C     3.006000000    -0.499000000    -0.598000000
O     3.708000000    -0.978000000     0.333000000
O     3.334000000    -0.704000000    -1.705000000
