17
-92.34897
C     0.927000000     0.221000000    -1.111000000
H     1.510000000     0.381000000    -2.014000000
C    -0.504000000     0.101000000    -1.224000000
H    -0.947000000     0.165000000    -2.214000000
C    -1.281000000    -0.057000000    -0.106000000
C    -2.782000000    -0.174000000    -0.214000000
H    -3.159000000     0.850000000    -0.245000000
H    -3.121000000    -0.549000000    -1.182000000
H    -3.182000000    -0.767000000     0.611000000
C    -0.572000000    -0.237000000     1.155000000
H    -1.185000000    -0.234000000     2.052000000
C     0.819000000    -0.178000000     1.253000000
H     1.357000000    -0.078000000     2.193000000
C     1.589000000     0.101000000     0.084000000
C     3.105000000     0.197000000     0.246000000
O     3.587000000     0.203000000     1.381000000
O     3.843000000     0.061000000    -0.667000000
