17
-85.57155
C     1.222000000    -0.542000000    -0.775000000
H     2.038000000    -0.771000000    -1.455000000
C    -0.109000000    -0.925000000    -0.848000000
H    -0.455000000    -1.570000000    -1.652000000
C    -1.089000000    -0.500000000     0.021000000
C    -2.499000000    -0.974000000    -0.263000000
H    -2.634000000    -2.056000000    -0.315000000
H    -3.199000000    -0.592000000     0.483000000
H    -2.796000000    -0.773000000    -1.294000000
C    -0.834000000     0.531000000     0.927000000
H    -1.621000000     0.958000000     1.543000000
C     0.434000000     1.036000000     0.974000000
H     0.565000000     1.825000000     1.710000000
C     1.496000000     0.394000000     0.258000000
C     2.842000000     1.064000000     0.257000000
O     2.971000000     1.998000000     1.021000000
O     3.665000000     0.900000000    -0.589000000
