17
-96.47936
C     0.924000000    -0.719000000    -0.839000000
H     1.510000000    -1.392000000    -1.460000000
C    -0.389000000    -0.972000000    -0.738000000
H    -0.806000000    -1.705000000    -1.424000000
C    -1.227000000    -0.143000000     0.025000000
C    -2.737000000    -0.324000000     0.066000000
H    -3.267000000     0.188000000    -0.740000000
H    -2.877000000    -1.403000000    -0.028000000
H    -3.136000000    -0.050000000     1.045000000
C    -0.650000000     0.935000000     0.750000000
H    -1.299000000     1.531000000     1.386000000
C     0.777000000     1.075000000     0.743000000
H     1.326000000     1.803000000     1.336000000
C     1.553000000     0.246000000    -0.053000000
C     3.030000000     0.340000000    -0.066000000
O     3.627000000     1.169000000     0.604000000
O     3.635000000    -0.575000000    -0.609000000
