17
-94.18348
C     1.025000000    -0.867000000    -0.569000000
H     1.648000000    -1.589000000    -1.090000000
C    -0.342000000    -1.097000000    -0.530000000
H    -0.767000000    -2.003000000    -0.955000000
C    -1.227000000    -0.195000000     0.063000000
C    -2.657000000    -0.636000000     0.214000000
H    -3.426000000     0.137000000     0.278000000
H    -3.053000000    -1.125000000    -0.679000000
H    -2.685000000    -1.311000000     1.072000000
C    -0.712000000     1.009000000     0.545000000
H    -1.353000000     1.751000000     1.014000000
C     0.622000000     1.278000000     0.516000000
H     1.029000000     2.272000000     0.687000000
C     1.526000000     0.299000000    -0.026000000
C     3.030000000     0.616000000    -0.131000000
O     3.473000000     1.717000000     0.043000000
O     3.877000000    -0.254000000    -0.455000000
