17
-97.49929
C     1.126000000    -0.927000000     0.189000000
H     1.907000000    -1.652000000     0.403000000
C    -0.116000000    -1.290000000    -0.321000000
H    -0.301000000    -2.341000000    -0.530000000
C    -1.092000000    -0.306000000    -0.475000000
C    -2.423000000    -0.676000000    -1.016000000
H    -2.274000000    -0.747000000    -2.095000000
H    -2.642000000    -1.719000000    -0.780000000
H    -3.196000000     0.020000000    -0.682000000
C    -0.807000000     0.978000000    -0.169000000
H    -1.596000000     1.695000000    -0.378000000
C     0.415000000     1.389000000     0.303000000
H     0.596000000     2.428000000     0.564000000
C     1.415000000     0.397000000     0.529000000
C     2.651000000     0.814000000     1.285000000
O     2.711000000     1.854000000     1.927000000
O     3.624000000     0.078000000     1.248000000
