17
-90.91240
C     1.225000000    -0.841000000     0.032000000
H     1.963000000    -1.638000000     0.062000000
C     0.045000000    -1.112000000    -0.708000000
H    -0.159000000    -2.087000000    -1.144000000
C    -0.985000000    -0.199000000    -0.646000000
C    -2.239000000    -0.521000000    -1.451000000
H    -2.220000000    -0.135000000    -2.472000000
H    -2.467000000    -1.588000000    -1.503000000
H    -3.152000000    -0.115000000    -1.011000000
C    -0.946000000     0.930000000     0.146000000
H    -1.835000000     1.556000000     0.127000000
C     0.324000000     1.232000000     0.796000000
H     0.426000000     2.149000000     1.371000000
C     1.330000000     0.322000000     0.842000000
C     2.520000000     0.578000000     1.676000000
O     2.602000000     1.509000000     2.445000000
O     3.570000000    -0.038000000     1.444000000
