17
-93.52794
C     1.212000000     0.450000000    -0.698000000
H     2.034000000     0.790000000    -1.323000000
C    -0.104000000     1.005000000    -0.758000000
H    -0.321000000     1.708000000    -1.558000000
C    -1.132000000     0.499000000    -0.027000000
C    -2.492000000     1.124000000    -0.171000000
H    -3.296000000     0.432000000    -0.428000000
H    -2.694000000     1.601000000     0.790000000
H    -2.468000000     1.826000000    -1.007000000
C    -0.898000000    -0.536000000     0.877000000
H    -1.664000000    -0.858000000     1.578000000
C     0.415000000    -1.033000000     1.032000000
H     0.689000000    -1.771000000     1.782000000
C     1.417000000    -0.609000000     0.122000000
C     2.789000000    -1.311000000     0.019000000
O     2.878000000    -2.425000000     0.491000000
O     3.630000000    -0.899000000    -0.719000000
