17
-96.87394
C     0.652000000    -0.130000000    -1.334000000
H     0.980000000     0.013000000    -2.360000000
C    -0.537000000     0.507000000    -0.967000000
H    -1.100000000     1.056000000    -1.718000000
C    -1.039000000     0.549000000     0.313000000
C    -2.406000000     1.253000000     0.418000000
H    -2.320000000     2.327000000     0.594000000
H    -3.025000000     1.123000000    -0.471000000
H    -2.941000000     0.837000000     1.275000000
C    -0.350000000    -0.134000000     1.299000000
H    -0.712000000    -0.058000000     2.321000000
C     0.861000000    -0.703000000     0.984000000
H     1.354000000    -1.174000000     1.830000000
C     1.377000000    -0.743000000    -0.311000000
C     2.699000000    -1.372000000    -0.568000000
O     3.143000000    -2.186000000     0.275000000
O     3.370000000    -1.169000000    -1.582000000
