17
-93.67362
C     0.942000000    -0.200000000    -1.112000000
H     1.543000000    -0.336000000    -2.008000000
C    -0.239000000     0.478000000    -1.252000000
H    -0.536000000     0.795000000    -2.248000000
C    -1.091000000     0.441000000    -0.165000000
C    -2.514000000     1.043000000    -0.170000000
H    -2.946000000     1.178000000     0.824000000
H    -2.505000000     2.042000000    -0.612000000
H    -3.144000000     0.446000000    -0.832000000
C    -0.661000000     0.015000000     1.059000000
H    -1.370000000     0.027000000     1.883000000
C     0.617000000    -0.411000000     1.284000000
H     1.041000000    -0.584000000     2.270000000
C     1.432000000    -0.582000000     0.165000000
C     2.781000000    -1.265000000     0.282000000
O     3.273000000    -1.537000000     1.360000000
O     3.384000000    -1.558000000    -0.726000000
