17
-95.57777
C    -0.145000000     0.701000000    -1.298000000
H    -0.387000000     1.131000000    -2.266000000
C    -1.111000000    -0.053000000    -0.634000000
H    -2.082000000    -0.184000000    -1.104000000
C    -0.924000000    -0.564000000     0.621000000
C    -1.961000000    -1.352000000     1.273000000
H    -2.800000000    -1.673000000     0.652000000
H    -1.560000000    -2.229000000     1.787000000
H    -2.341000000    -0.798000000     2.134000000
C     0.321000000    -0.429000000     1.138000000
H     0.479000000    -0.753000000     2.164000000
C     1.327000000     0.287000000     0.492000000
H     2.322000000     0.308000000     0.929000000
C     1.169000000     0.774000000    -0.762000000
C     2.253000000     1.450000000    -1.508000000
O     3.385000000     1.485000000    -0.998000000
O     2.059000000     1.905000000    -2.616000000
