17
-91.97438
C    -0.473000000    -0.464000000    -1.324000000
H    -0.636000000    -1.023000000    -2.242000000
C    -0.702000000    -1.101000000    -0.155000000
H    -1.161000000    -2.087000000    -0.142000000
C    -0.213000000    -0.563000000     1.044000000
C    -0.388000000    -1.363000000     2.306000000
H    -0.809000000    -0.683000000     3.049000000
H    -0.997000000    -2.270000000     2.300000000
H     0.654000000    -1.559000000     2.567000000
C     0.430000000     0.607000000     1.078000000
H     0.798000000     1.063000000     1.993000000
C     0.576000000     1.306000000    -0.169000000
H     1.016000000     2.300000000    -0.196000000
C     0.149000000     0.785000000    -1.321000000
C     0.437000000     1.492000000    -2.591000000
O     0.848000000     2.641000000    -2.525000000
O     0.470000000     0.915000000    -3.678000000
