17
-85.63948
C    -0.650000000     1.110000000    -0.775000000
H    -1.300000000     1.857000000    -1.223000000
C    -1.219000000    -0.199000000    -0.524000000
H    -2.247000000    -0.347000000    -0.843000000
C    -0.490000000    -1.118000000     0.217000000
C    -1.135000000    -2.395000000     0.682000000
H    -1.998000000    -2.655000000     0.065000000
H    -0.469000000    -3.239000000     0.488000000
H    -1.582000000    -2.267000000     1.670000000
C     0.840000000    -0.842000000     0.590000000
H     1.453000000    -1.575000000     1.109000000
C     1.379000000     0.416000000     0.312000000
H     2.379000000     0.638000000     0.676000000
C     0.670000000     1.408000000    -0.322000000
C     1.302000000     2.680000000    -0.640000000
O     2.379000000     3.013000000    -0.247000000
O     0.691000000     3.508000000    -1.236000000
