17
-97.89715
C     1.308000000    -0.144000000     0.542000000
H     2.314000000    -0.109000000     0.953000000
C     0.387000000     0.783000000     0.952000000
H     0.656000000     1.479000000     1.742000000
C    -0.856000000     0.770000000     0.433000000
C    -1.897000000     1.708000000     0.922000000
H    -2.594000000     2.033000000     0.146000000
H    -2.510000000     1.163000000     1.643000000
H    -1.529000000     2.643000000     1.350000000
C    -1.143000000    -0.126000000    -0.608000000
H    -2.176000000    -0.174000000    -0.941000000
C    -0.213000000    -1.004000000    -1.167000000
H    -0.449000000    -1.671000000    -1.992000000
C     1.047000000    -1.058000000    -0.532000000
C     2.221000000    -1.894000000    -1.019000000
O     2.076000000    -2.725000000    -1.874000000
O     3.354000000    -1.677000000    -0.550000000
