17
-97.40281
C    -0.358000000     1.374000000    -0.476000000
H    -0.757000000     2.332000000    -0.800000000
C    -1.227000000     0.336000000    -0.110000000
H    -2.291000000     0.545000000    -0.186000000
C    -0.812000000    -0.903000000     0.318000000
C    -1.736000000    -2.016000000     0.600000000
H    -1.628000000    -2.643000000    -0.287000000
H    -1.521000000    -2.657000000     1.457000000
H    -2.802000000    -1.781000000     0.549000000
C     0.558000000    -1.097000000     0.377000000
H     0.963000000    -2.072000000     0.637000000
C     1.453000000    -0.094000000     0.070000000
H     2.512000000    -0.337000000     0.112000000
C     1.010000000     1.184000000    -0.306000000
C     1.923000000     2.321000000    -0.544000000
O     3.126000000     2.144000000    -0.313000000
O     1.585000000     3.361000000    -1.096000000
