17
-86.88884
C    -0.136000000     1.521000000    -0.148000000
H    -0.319000000     2.590000000    -0.224000000
C    -1.178000000     0.522000000    -0.391000000
H    -2.163000000     0.802000000    -0.755000000
C    -0.889000000    -0.797000000    -0.156000000
C    -2.025000000    -1.841000000    -0.344000000
H    -1.906000000    -2.634000000     0.397000000
H    -3.058000000    -1.484000000    -0.327000000
H    -1.879000000    -2.412000000    -1.263000000
C     0.401000000    -1.231000000     0.244000000
H     0.586000000    -2.284000000     0.439000000
C     1.391000000    -0.276000000     0.559000000
H     2.381000000    -0.535000000     0.925000000
C     1.130000000     1.058000000     0.274000000
C     2.235000000     2.085000000     0.364000000
O     3.387000000     1.839000000     0.674000000
O     2.043000000     3.075000000    -0.261000000
