17
-92.33662
C    -0.029000000     1.478000000     0.128000000
H    -0.187000000     2.550000000     0.212000000
C    -1.167000000     0.679000000     0.119000000
H    -2.108000000     1.218000000     0.175000000
C    -1.013000000    -0.751000000    -0.032000000
C    -2.209000000    -1.659000000    -0.294000000
H    -1.790000000    -2.645000000    -0.508000000
H    -2.866000000    -1.667000000     0.578000000
H    -2.748000000    -1.134000000    -1.086000000
C     0.254000000    -1.282000000    -0.006000000
H     0.414000000    -2.356000000     0.033000000
C     1.353000000    -0.445000000     0.173000000
H     2.352000000    -0.873000000     0.165000000
C     1.251000000     0.919000000     0.240000000
C     2.503000000     1.775000000     0.084000000
O     3.620000000     1.251000000    -0.107000000
O     2.378000000     2.937000000     0.131000000
