17
-95.39989
C     0.137000000     1.404000000     0.305000000
H     0.234000000     2.454000000     0.566000000
C    -1.043000000     0.810000000    -0.080000000
H    -1.983000000     1.348000000     0.011000000
C    -1.044000000    -0.546000000    -0.503000000
C    -2.353000000    -1.213000000    -0.838000000
H    -2.513000000    -1.989000000    -0.086000000
H    -3.173000000    -0.501000000    -0.957000000
H    -2.318000000    -1.737000000    -1.795000000
C     0.164000000    -1.281000000    -0.238000000
H     0.132000000    -2.341000000    -0.479000000
C     1.308000000    -0.691000000     0.312000000
H     2.195000000    -1.316000000     0.252000000
C     1.313000000     0.728000000     0.548000000
C     2.654000000     1.430000000     0.926000000
O     3.673000000     0.787000000     0.928000000
O     2.625000000     2.651000000     1.126000000
