17
-100.73805
C    -0.303000000     0.405000000     1.475000000
H    -0.644000000     0.614000000     2.486000000
C    -1.135000000    -0.397000000     0.609000000
H    -2.034000000    -0.848000000     1.019000000
C    -0.716000000    -0.718000000    -0.687000000
C    -1.539000000    -1.610000000    -1.616000000
H    -1.039000000    -2.580000000    -1.668000000
H    -2.565000000    -1.896000000    -1.378000000
H    -1.568000000    -1.139000000    -2.601000000
C     0.490000000    -0.181000000    -1.186000000
H     0.780000000    -0.469000000    -2.193000000
C     1.230000000     0.679000000    -0.379000000
H     2.169000000     1.029000000    -0.800000000
C     0.869000000     0.970000000     0.952000000
C     1.755000000     1.840000000     1.764000000
O     2.692000000     2.415000000     1.231000000
O     1.550000000     1.888000000     2.965000000
