17
-92.64277
C    -0.651000000     1.240000000    -0.440000000
H    -1.226000000     2.035000000    -0.910000000
C    -1.328000000     0.172000000     0.154000000
H    -2.415000000     0.203000000     0.164000000
C    -0.569000000    -0.858000000     0.665000000
C    -1.162000000    -2.026000000     1.269000000
H    -0.582000000    -2.506000000     2.061000000
H    -2.182000000    -1.894000000     1.637000000
H    -1.251000000    -2.764000000     0.469000000
C     0.777000000    -0.919000000     0.399000000
H     1.277000000    -1.751000000     0.889000000
C     1.467000000     0.083000000    -0.269000000
H     2.539000000    -0.065000000    -0.369000000
C     0.768000000     1.223000000    -0.630000000
C     1.362000000     2.329000000    -1.433000000
O     2.382000000     2.112000000    -2.064000000
O     0.792000000     3.392000000    -1.589000000
