17
-93.08007
C     1.050000000    -0.057000000     1.053000000
H     1.819000000    -0.053000000     1.821000000
C    -0.007000000     0.840000000     1.016000000
H    -0.094000000     1.614000000     1.775000000
C    -0.981000000     0.749000000     0.033000000
C    -2.135000000     1.749000000     0.107000000
H    -1.844000000     2.634000000    -0.464000000
H    -3.055000000     1.327000000    -0.303000000
H    -2.263000000     1.923000000     1.177000000
C    -0.882000000    -0.292000000    -0.987000000
H    -1.651000000    -0.481000000    -1.732000000
C     0.215000000    -1.115000000    -0.970000000
H     0.346000000    -1.878000000    -1.733000000
C     1.206000000    -0.937000000    -0.017000000
C     2.448000000    -1.772000000    -0.208000000
O     2.371000000    -2.618000000    -1.024000000
O     3.462000000    -1.632000000     0.456000000
