17
-93.26662
C    -1.054000000     0.590000000     0.840000000
H    -1.908000000     0.789000000     1.482000000
C    -1.298000000    -0.121000000    -0.317000000
H    -2.270000000    -0.465000000    -0.660000000
C    -0.186000000    -0.579000000    -1.070000000
C    -0.489000000    -1.390000000    -2.268000000
H     0.384000000    -1.916000000    -2.660000000
H    -1.296000000    -2.097000000    -2.065000000
H    -0.790000000    -0.680000000    -3.041000000
C     1.139000000    -0.375000000    -0.583000000
H     1.925000000    -0.890000000    -1.129000000
C     1.351000000     0.441000000     0.487000000
H     2.366000000     0.595000000     0.847000000
C     0.236000000     0.896000000     1.268000000
C     0.598000000     1.617000000     2.594000000
O     1.694000000     1.612000000     3.140000000
O    -0.402000000     1.970000000     3.131000000
