17
-94.77736
C    -0.738000000     1.249000000     0.352000000
H    -1.449000000     2.060000000     0.492000000
C    -1.096000000     0.399000000    -0.668000000
H    -2.034000000     0.552000000    -1.196000000
C    -0.272000000    -0.662000000    -0.979000000
C    -0.642000000    -1.676000000    -2.038000000
H     0.084000000    -1.630000000    -2.852000000
H    -0.702000000    -2.700000000    -1.664000000
H    -1.637000000    -1.549000000    -2.468000000
C     0.836000000    -0.922000000    -0.239000000
H     1.314000000    -1.896000000    -0.306000000
C     1.224000000    -0.079000000     0.825000000
H     2.113000000    -0.297000000     1.412000000
C     0.420000000     1.010000000     1.143000000
C     0.756000000     1.884000000     2.364000000
O     1.918000000     1.984000000     2.673000000
O    -0.095000000     2.273000000     3.151000000
