17
-97.69988
C    -0.904000000     0.802000000     0.842000000
H    -1.658000000     1.320000000     1.430000000
C    -1.148000000     0.450000000    -0.504000000
H    -2.056000000     0.736000000    -1.028000000
C    -0.211000000    -0.317000000    -1.211000000
C    -0.506000000    -0.695000000    -2.592000000
H     0.410000000    -0.456000000    -3.136000000
H    -0.695000000    -1.771000000    -2.608000000
H    -1.353000000    -0.195000000    -3.065000000
C     0.939000000    -0.792000000    -0.533000000
H     1.584000000    -1.461000000    -1.096000000
C     1.203000000    -0.397000000     0.786000000
H     2.018000000    -0.848000000     1.347000000
C     0.297000000     0.449000000     1.493000000
C     0.583000000     0.911000000     2.900000000
O     1.527000000     0.425000000     3.477000000
O    -0.026000000     1.838000000     3.491000000
