17
-88.72894
C    -0.619000000     0.881000000     1.003000000
H    -1.220000000     1.550000000     1.614000000
C    -0.909000000     0.903000000    -0.386000000
H    -1.683000000     1.553000000    -0.788000000
C    -0.254000000    -0.032000000    -1.206000000
C    -0.517000000     0.004000000    -2.725000000
H     0.387000000    -0.265000000    -3.275000000
H    -1.233000000    -0.816000000    -2.810000000
H    -0.977000000     0.922000000    -3.095000000
C     0.606000000    -0.965000000    -0.685000000
H     1.161000000    -1.652000000    -1.319000000
C     0.958000000    -0.899000000     0.697000000
H     1.635000000    -1.599000000     1.180000000
C     0.397000000     0.067000000     1.522000000
C     0.728000000     0.102000000     3.009000000
O     1.062000000    -0.852000000     3.667000000
O     0.482000000     1.095000000     3.594000000
