17
-88.14509
C     0.671000000     0.020000000     1.341000000
H     1.118000000     0.168000000     2.321000000
C    -0.499000000     0.674000000     1.011000000
H    -1.019000000     1.263000000     1.761000000
C    -1.136000000     0.387000000    -0.168000000
C    -2.255000000     1.220000000    -0.658000000
H    -2.215000000     2.172000000    -0.126000000
H    -2.252000000     1.463000000    -1.723000000
H    -3.221000000     0.842000000    -0.317000000
C    -0.577000000    -0.441000000    -1.101000000
H    -1.031000000    -0.354000000    -2.085000000
C     0.621000000    -1.072000000    -0.866000000
H     1.222000000    -1.583000000    -1.613000000
C     1.271000000    -0.779000000     0.339000000
C     2.700000000    -1.241000000     0.611000000
O     3.232000000    -1.920000000    -0.242000000
O     3.375000000    -0.819000000     1.517000000
