17
-92.13348
C    -0.595000000     0.940000000     1.043000000
H    -0.848000000     1.681000000     1.797000000
C    -0.483000000     1.138000000    -0.334000000
H    -0.840000000     2.106000000    -0.674000000
C    -0.021000000     0.185000000    -1.196000000
C     0.292000000     0.599000000    -2.661000000
H    -0.551000000     0.302000000    -3.289000000
H     0.600000000     1.625000000    -2.872000000
H     1.095000000    -0.073000000    -2.972000000
C     0.382000000    -1.020000000    -0.715000000
H     0.749000000    -1.686000000    -1.491000000
C     0.340000000    -1.292000000     0.620000000
H     0.676000000    -2.229000000     1.056000000
C    -0.186000000    -0.315000000     1.518000000
C    -0.230000000    -0.582000000     2.995000000
O     0.649000000    -1.307000000     3.450000000
O    -1.032000000    -0.070000000     3.720000000
