17
-91.80682
C    -0.340000000     1.041000000     0.989000000
H    -0.523000000     1.929000000     1.588000000
C    -0.801000000     1.019000000    -0.328000000
H    -1.398000000     1.834000000    -0.728000000
C    -0.380000000    -0.008000000    -1.164000000
C    -0.667000000     0.097000000    -2.633000000
H    -0.201000000    -0.662000000    -3.265000000
H    -1.718000000    -0.048000000    -2.892000000
H    -0.327000000     1.080000000    -2.968000000
C     0.432000000    -1.052000000    -0.691000000
H     0.913000000    -1.807000000    -1.309000000
C     0.710000000    -1.098000000     0.651000000
H     1.193000000    -1.966000000     1.091000000
C     0.347000000    -0.071000000     1.527000000
C     0.849000000    -0.076000000     2.964000000
O     1.408000000    -1.008000000     3.437000000
O     0.510000000     0.796000000     3.733000000
