17
-90.18277
C    -0.719000000     0.800000000     1.122000000
H    -1.164000000     1.419000000     1.897000000
C    -1.051000000     0.800000000    -0.239000000
H    -1.810000000     1.465000000    -0.643000000
C    -0.415000000    -0.087000000    -1.144000000
C    -0.610000000    -0.018000000    -2.634000000
H    -1.013000000     0.963000000    -2.897000000
H     0.383000000    -0.082000000    -3.085000000
H    -1.251000000    -0.794000000    -3.058000000
C     0.587000000    -0.938000000    -0.710000000
H     1.056000000    -1.631000000    -1.403000000
C     1.032000000    -0.839000000     0.619000000
H     1.849000000    -1.498000000     0.901000000
C     0.405000000     0.053000000     1.467000000
C     0.795000000     0.094000000     2.878000000
O     1.147000000    -0.863000000     3.470000000
O     0.773000000     1.164000000     3.466000000
