17
-92.01850
C     0.708000000     0.944000000     0.940000000
H     1.105000000     1.651000000     1.663000000
C     0.047000000     1.336000000    -0.267000000
H     0.017000000     2.398000000    -0.497000000
C    -0.543000000     0.359000000    -1.091000000
C    -1.588000000     0.849000000    -1.990000000
H    -2.583000000     0.686000000    -1.571000000
H    -1.448000000     1.881000000    -2.317000000
H    -1.599000000     0.223000000    -2.885000000
C    -0.498000000    -0.974000000    -0.697000000
H    -0.991000000    -1.740000000    -1.290000000
C     0.337000000    -1.386000000     0.319000000
H     0.505000000    -2.448000000     0.477000000
C     0.911000000    -0.476000000     1.196000000
C     1.682000000    -0.936000000     2.371000000
O     2.224000000    -2.007000000     2.210000000
O     1.715000000    -0.355000000     3.434000000
