17
-87.54175
C     0.793000000     0.664000000     1.141000000
H     1.236000000     1.285000000     1.915000000
C     0.596000000     1.221000000    -0.116000000
H     1.097000000     2.135000000    -0.423000000
C    -0.188000000     0.587000000    -1.042000000
C    -0.156000000     0.858000000    -2.537000000
H    -0.935000000     1.583000000    -2.781000000
H     0.791000000     1.333000000    -2.801000000
H    -0.369000000    -0.063000000    -3.084000000
C    -0.733000000    -0.649000000    -0.761000000
H    -1.395000000    -1.078000000    -1.509000000
C    -0.513000000    -1.302000000     0.447000000
H    -1.072000000    -2.211000000     0.654000000
C     0.207000000    -0.631000000     1.405000000
C     0.194000000    -1.073000000     2.817000000
O    -0.697000000    -1.799000000     3.124000000
O     1.152000000    -0.855000000     3.556000000
