17
-97.75989
C     1.273000000     0.343000000     0.664000000
H     2.185000000     0.758000000     1.086000000
C     0.904000000     0.787000000    -0.557000000
H     1.539000000     1.350000000    -1.236000000
C    -0.350000000     0.409000000    -1.061000000
C    -0.740000000     0.870000000    -2.487000000
H    -1.808000000     0.695000000    -2.634000000
H    -0.541000000     1.941000000    -2.554000000
H    -0.148000000     0.321000000    -3.222000000
C    -1.257000000    -0.350000000    -0.313000000
H    -2.239000000    -0.607000000    -0.701000000
C    -0.814000000    -0.897000000     0.854000000
H    -1.379000000    -1.599000000     1.462000000
C     0.478000000    -0.540000000     1.349000000
C     0.842000000    -1.011000000     2.751000000
O     0.137000000    -1.802000000     3.380000000
O     1.911000000    -0.666000000     3.217000000
