17
-92.60692
C     0.946000000    -1.059000000    -0.389000000
H     1.562000000    -1.878000000    -0.748000000
C    -0.484000000    -1.148000000    -0.272000000
H    -0.905000000    -2.101000000    -0.584000000
C    -1.246000000    -0.094000000     0.161000000
C    -2.713000000    -0.167000000    -0.081000000
H    -3.071000000     0.721000000    -0.606000000
H    -2.847000000    -1.016000000    -0.754000000
H    -3.279000000    -0.332000000     0.838000000
C    -0.609000000     1.103000000     0.461000000
H    -1.210000000     1.995000000     0.621000000
C     0.755000000     1.172000000     0.412000000
H     1.146000000     2.160000000     0.642000000
C     1.612000000     0.081000000     0.006000000
C     3.044000000     0.165000000     0.081000000
O     3.582000000     1.239000000     0.324000000
O     3.718000000    -0.834000000    -0.109000000
