17
-98.93891
C     0.741000000    -1.195000000    -0.303000000
H     1.253000000    -2.039000000    -0.759000000
C    -0.472000000    -0.837000000    -0.884000000
H    -0.878000000    -1.459000000    -1.677000000
C    -1.105000000     0.295000000    -0.416000000
C    -2.455000000     0.744000000    -1.061000000
H    -2.327000000     0.939000000    -2.128000000
H    -3.175000000    -0.055000000    -0.874000000
H    -2.682000000     1.722000000    -0.630000000
C    -0.518000000     1.121000000     0.546000000
H    -1.011000000     2.054000000     0.806000000
C     0.727000000     0.692000000     1.087000000
H     1.259000000     1.315000000     1.802000000
C     1.350000000    -0.450000000     0.669000000
C     2.734000000    -0.842000000     1.165000000
O     3.195000000    -0.317000000     2.139000000
O     3.363000000    -1.693000000     0.526000000
