17
-93.87537
C     0.790000000    -1.033000000    -0.721000000
H     1.099000000    -1.972000000    -1.173000000
C    -0.427000000    -0.458000000    -1.131000000
H    -0.953000000    -0.816000000    -2.012000000
C    -1.018000000     0.551000000    -0.333000000
C    -2.421000000     0.949000000    -0.739000000
H    -2.581000000     2.025000000    -0.832000000
H    -2.768000000     0.439000000    -1.640000000
H    -3.044000000     0.518000000     0.047000000
C    -0.416000000     1.011000000     0.793000000
H    -0.941000000     1.692000000     1.459000000
C     0.888000000     0.564000000     1.053000000
H     1.359000000     1.020000000     1.920000000
C     1.492000000    -0.474000000     0.376000000
C     2.728000000    -1.141000000     0.832000000
O     2.882000000    -1.046000000     2.031000000
O     3.334000000    -1.824000000     0.073000000
