17
-98.07621
C     0.404000000    -1.411000000    -0.203000000
H     0.661000000    -2.454000000    -0.373000000
C    -0.891000000    -0.980000000     0.094000000
H    -1.633000000    -1.765000000     0.212000000
C    -1.118000000     0.369000000     0.326000000
C    -2.459000000     0.841000000     0.804000000
H    -3.289000000     0.236000000     0.435000000
H    -2.522000000     0.787000000     1.893000000
H    -2.574000000     1.875000000     0.471000000
C    -0.109000000     1.276000000     0.068000000
H    -0.297000000     2.320000000     0.306000000
C     1.196000000     0.856000000    -0.208000000
H     1.929000000     1.631000000    -0.419000000
C     1.434000000    -0.478000000    -0.421000000
C     2.736000000    -0.936000000    -0.880000000
O     3.561000000    -0.057000000    -1.129000000
O     2.964000000    -2.109000000    -0.982000000
