17
-93.85221
C     0.410000000    -1.429000000    -0.243000000
H     0.782000000    -2.449000000    -0.281000000
C    -0.467000000    -1.009000000     0.750000000
H    -0.753000000    -1.739000000     1.502000000
C    -0.873000000     0.330000000     0.842000000
C    -1.662000000     0.861000000     1.980000000
H    -1.101000000     0.909000000     2.916000000
H    -1.856000000     1.912000000     1.759000000
H    -2.585000000     0.293000000     2.122000000
C    -0.358000000     1.167000000    -0.115000000
H    -0.722000000     2.185000000     0.000000000
C     0.647000000     0.886000000    -1.003000000
H     1.063000000     1.603000000    -1.708000000
C     0.954000000    -0.493000000    -1.129000000
C     1.952000000    -0.889000000    -2.176000000
O     2.326000000    -0.058000000    -2.931000000
O     2.238000000    -2.076000000    -2.282000000
