17
-91.74156
C     0.320000000    -1.392000000     0.405000000
H     0.282000000    -2.420000000     0.758000000
C    -0.297000000    -0.432000000     1.182000000
H    -0.663000000    -0.833000000     2.123000000
C    -0.470000000     0.888000000     0.764000000
C    -1.417000000     1.782000000     1.524000000
H    -1.840000000     1.322000000     2.420000000
H    -0.889000000     2.642000000     1.940000000
H    -2.237000000     2.175000000     0.918000000
C    -0.029000000     1.183000000    -0.471000000
H    -0.241000000     2.169000000    -0.877000000
C     0.613000000     0.280000000    -1.330000000
H     1.090000000     0.687000000    -2.218000000
C     0.726000000    -1.070000000    -0.917000000
C     1.480000000    -2.063000000    -1.845000000
O     1.780000000    -1.730000000    -2.942000000
O     1.791000000    -3.190000000    -1.440000000
