17
-91.39572
C     0.711000000    -0.163000000     1.277000000
H     1.065000000    -0.399000000     2.278000000
C    -0.575000000     0.385000000     1.068000000
H    -1.293000000     0.561000000     1.864000000
C    -1.060000000     0.560000000    -0.182000000
C    -2.417000000     1.099000000    -0.263000000
H    -2.797000000     1.168000000    -1.284000000
H    -3.093000000     0.446000000     0.293000000
H    -2.471000000     2.061000000     0.249000000
C    -0.381000000     0.216000000    -1.296000000
H    -0.806000000     0.348000000    -2.288000000
C     0.908000000    -0.407000000    -1.133000000
H     1.467000000    -0.836000000    -1.960000000
C     1.494000000    -0.559000000     0.164000000
C     2.786000000    -1.223000000     0.364000000
O     3.250000000    -1.795000000    -0.624000000
O     3.212000000    -1.464000000     1.473000000
