17
-88.42430
C    -0.258000000    -1.414000000     0.588000000
H    -0.637000000    -2.353000000     0.984000000
C    -0.869000000    -0.167000000     0.926000000
H    -1.641000000    -0.162000000     1.691000000
C    -0.581000000     1.054000000     0.357000000
C    -1.214000000     2.334000000     0.709000000
H    -1.442000000     2.858000000    -0.222000000
H    -2.180000000     2.150000000     1.184000000
H    -0.544000000     2.865000000     1.387000000
C     0.518000000     1.080000000    -0.469000000
H     0.844000000     2.077000000    -0.754000000
C     1.149000000    -0.086000000    -0.965000000
H     2.010000000    -0.077000000    -1.628000000
C     0.590000000    -1.318000000    -0.486000000
C     1.242000000    -2.593000000    -0.960000000
O     1.846000000    -2.568000000    -1.987000000
O     1.164000000    -3.679000000    -0.347000000
