17
-96.93612
C    -0.159000000    -1.074000000    -0.982000000
H    -0.404000000    -1.880000000    -1.668000000
C    -1.124000000    -0.134000000    -0.682000000
H    -2.150000000    -0.137000000    -1.041000000
C    -0.830000000     0.827000000     0.309000000
C    -1.858000000     1.873000000     0.550000000
H    -1.953000000     2.274000000     1.561000000
H    -1.620000000     2.725000000    -0.089000000
H    -2.818000000     1.504000000     0.184000000
C     0.385000000     0.831000000     0.969000000
H     0.548000000     1.428000000     1.862000000
C     1.316000000    -0.140000000     0.688000000
H     2.277000000    -0.118000000     1.195000000
C     1.075000000    -1.051000000    -0.311000000
C     2.155000000    -2.053000000    -0.725000000
O     3.214000000    -2.031000000    -0.183000000
O     1.941000000    -2.839000000    -1.634000000
