17
-80.84535
C    -0.442000000    -1.419000000    -0.208000000
H    -0.816000000    -2.411000000    -0.448000000
C    -1.281000000    -0.375000000     0.226000000
H    -2.362000000    -0.474000000     0.286000000
C    -0.722000000     0.854000000     0.416000000
C    -1.503000000     2.016000000     1.055000000
H    -1.878000000     2.733000000     0.322000000
H    -2.290000000     1.600000000     1.688000000
H    -0.930000000     2.593000000     1.783000000
C     0.628000000     1.123000000     0.168000000
H     1.031000000     2.121000000     0.320000000
C     1.441000000     0.108000000    -0.337000000
H     2.440000000     0.375000000    -0.671000000
C     0.893000000    -1.186000000    -0.499000000
C     1.690000000    -2.280000000    -1.124000000
O     2.820000000    -2.087000000    -1.322000000
O     1.282000000    -3.295000000    -1.653000000
