17
-90.20352
C    -0.121000000    -1.383000000    -0.493000000
H    -0.379000000    -2.367000000    -0.874000000
C    -1.168000000    -0.485000000    -0.410000000
H    -2.128000000    -0.812000000    -0.802000000
C    -0.940000000     0.792000000     0.079000000
C    -2.023000000     1.726000000     0.144000000
H    -2.254000000     1.740000000     1.212000000
H    -1.723000000     2.692000000    -0.267000000
H    -2.940000000     1.480000000    -0.396000000
C     0.329000000     1.138000000     0.387000000
H     0.480000000     2.172000000     0.689000000
C     1.473000000     0.343000000     0.308000000
H     2.408000000     0.751000000     0.682000000
C     1.192000000    -0.990000000    -0.110000000
C     2.331000000    -1.979000000    -0.115000000
O     3.471000000    -1.671000000     0.161000000
O     1.985000000    -3.147000000    -0.190000000
