17
-91.58385
C    -0.219000000    -0.895000000    -1.063000000
H    -0.565000000    -1.544000000    -1.863000000
C    -1.175000000    -0.033000000    -0.658000000
H    -2.164000000    -0.161000000    -1.090000000
C    -0.859000000     0.765000000     0.431000000
C    -1.867000000     1.750000000     1.000000000
H    -2.588000000     2.103000000     0.259000000
H    -2.333000000     1.174000000     1.802000000
H    -1.383000000     2.632000000     1.424000000
C     0.415000000     0.812000000     0.897000000
H     0.673000000     1.499000000     1.699000000
C     1.409000000    -0.090000000     0.458000000
H     2.426000000    -0.071000000     0.842000000
C     1.079000000    -1.007000000    -0.549000000
C     2.061000000    -2.038000000    -1.038000000
O     3.168000000    -2.148000000    -0.507000000
O     1.925000000    -2.747000000    -2.046000000
