17
-97.37368
C    -0.488000000    -0.828000000    -1.167000000
H    -0.832000000    -1.434000000    -2.001000000
C    -1.299000000    -0.417000000    -0.105000000
H    -2.356000000    -0.654000000    -0.015000000
C    -0.755000000     0.356000000     0.924000000
C    -1.514000000     0.708000000     2.128000000
H    -1.017000000     1.404000000     2.807000000
H    -2.367000000     1.300000000     1.792000000
H    -1.852000000    -0.213000000     2.607000000
C     0.623000000     0.634000000     0.913000000
H     1.109000000     1.248000000     1.667000000
C     1.403000000     0.369000000    -0.207000000
H     2.429000000     0.726000000    -0.174000000
C     0.866000000    -0.389000000    -1.246000000
C     1.758000000    -0.863000000    -2.369000000
O     2.927000000    -0.958000000    -2.052000000
O     1.372000000    -0.983000000    -3.507000000
