17
-88.51780
C     0.198000000    -1.413000000    -0.162000000
H     0.006000000    -2.477000000    -0.275000000
C    -0.945000000    -0.759000000     0.279000000
H    -1.828000000    -1.375000000     0.428000000
C    -0.928000000     0.608000000     0.487000000
C    -2.226000000     1.170000000     0.961000000
H    -2.641000000     0.512000000     1.726000000
H    -2.055000000     2.120000000     1.471000000
H    -2.983000000     1.191000000     0.173000000
C     0.144000000     1.365000000     0.128000000
H     0.175000000     2.446000000     0.232000000
C     1.253000000     0.768000000    -0.403000000
H     2.118000000     1.412000000    -0.543000000
C     1.305000000    -0.647000000    -0.563000000
C     2.508000000    -1.420000000    -1.182000000
O     3.551000000    -0.912000000    -1.486000000
O     2.354000000    -2.591000000    -1.277000000
