17
-93.10703
C     0.505000000    -1.343000000    -0.409000000
H     0.762000000    -2.396000000    -0.488000000
C    -0.849000000    -1.019000000    -0.171000000
H    -1.650000000    -1.738000000    -0.327000000
C    -1.188000000     0.303000000     0.074000000
C    -2.576000000     0.743000000     0.342000000
H    -3.099000000     0.905000000    -0.602000000
H    -3.033000000     0.041000000     1.042000000
H    -2.625000000     1.686000000     0.892000000
C    -0.197000000     1.237000000     0.067000000
H    -0.425000000     2.300000000     0.080000000
C     1.120000000     0.919000000    -0.071000000
H     1.931000000     1.639000000    -0.144000000
C     1.531000000    -0.426000000    -0.291000000
C     2.939000000    -0.798000000    -0.126000000
O     3.537000000    -0.162000000     0.708000000
O     3.313000000    -1.897000000    -0.582000000
