17
-93.26074
C    -0.006000000    -1.342000000     0.505000000
H     0.006000000    -2.379000000     0.830000000
C    -1.177000000    -0.566000000     0.339000000
H    -2.177000000    -0.916000000     0.584000000
C    -0.999000000     0.724000000    -0.224000000
C    -2.211000000     1.627000000    -0.313000000
H    -1.846000000     2.656000000    -0.305000000
H    -2.614000000     1.594000000    -1.328000000
H    -3.026000000     1.402000000     0.378000000
C     0.261000000     1.158000000    -0.520000000
H     0.430000000     2.137000000    -0.962000000
C     1.431000000     0.396000000    -0.284000000
H     2.399000000     0.813000000    -0.553000000
C     1.300000000    -0.872000000     0.246000000
C     2.451000000    -1.830000000     0.572000000
O     3.495000000    -1.615000000    -0.010000000
O     2.289000000    -2.989000000     1.039000000
