17
-97.08758
C     0.155000000    -0.591000000     1.350000000
H     0.221000000    -1.143000000     2.284000000
C    -1.082000000    -0.273000000     0.759000000
H    -2.029000000    -0.610000000     1.174000000
C    -1.078000000     0.404000000    -0.443000000
C    -2.371000000     0.656000000    -1.222000000
H    -2.653000000     1.701000000    -1.075000000
H    -2.227000000     0.473000000    -2.288000000
H    -3.173000000    -0.012000000    -0.902000000
C     0.139000000     0.789000000    -1.021000000
H     0.156000000     1.493000000    -1.849000000
C     1.351000000     0.377000000    -0.432000000
H     2.256000000     0.654000000    -0.968000000
C     1.373000000    -0.340000000     0.748000000
C     2.643000000    -0.947000000     1.248000000
O     3.721000000    -0.610000000     0.776000000
O     2.606000000    -2.019000000     1.867000000
