17
-96.64370
C     0.096000000    -1.083000000     1.032000000
H     0.209000000    -1.959000000     1.666000000
C    -0.791000000    -1.044000000    -0.047000000
H    -1.386000000    -1.934000000    -0.233000000
C    -0.853000000     0.090000000    -0.873000000
C    -1.752000000     0.187000000    -2.112000000
H    -2.754000000     0.548000000    -1.872000000
H    -1.361000000     0.729000000    -2.976000000
H    -1.853000000    -0.835000000    -2.483000000
C    -0.008000000     1.163000000    -0.651000000
H    -0.075000000     2.061000000    -1.259000000
C     0.944000000     1.121000000     0.395000000
H     1.701000000     1.899000000     0.433000000
C     0.999000000     0.028000000     1.243000000
C     1.991000000    -0.244000000     2.339000000
O     3.022000000     0.418000000     2.283000000
O     1.863000000    -1.141000000     3.111000000
