17
-94.99035
C     0.249000000    -0.863000000     1.145000000
H     0.289000000    -1.559000000     1.979000000
C    -0.981000000    -0.493000000     0.648000000
H    -1.919000000    -0.913000000     1.002000000
C    -1.017000000     0.339000000    -0.494000000
C    -2.474000000     0.504000000    -1.073000000
H    -2.420000000     0.618000000    -2.158000000
H    -3.093000000    -0.349000000    -0.789000000
H    -2.942000000     1.409000000    -0.681000000
C     0.110000000     0.997000000    -1.036000000
H     0.110000000     1.670000000    -1.890000000
C     1.326000000     0.638000000    -0.440000000
H     2.213000000     1.126000000    -0.836000000
C     1.384000000    -0.332000000     0.589000000
C     2.705000000    -0.817000000     1.171000000
O     3.761000000    -0.277000000     0.870000000
O     2.697000000    -1.692000000     1.985000000
