17
-86.07934
C    -0.111000000    -0.506000000     1.378000000
H    -0.440000000    -0.808000000     2.369000000
C    -0.872000000     0.417000000     0.697000000
H    -1.691000000     0.858000000     1.260000000
C    -0.779000000     0.779000000    -0.577000000
C    -1.743000000     1.750000000    -1.179000000
H    -1.362000000     2.767000000    -1.294000000
H    -2.005000000     1.348000000    -2.160000000
H    -2.631000000     1.713000000    -0.545000000
C     0.265000000     0.237000000    -1.365000000
H     0.394000000     0.462000000    -2.421000000
C     1.146000000    -0.593000000    -0.677000000
H     1.996000000    -1.001000000    -1.219000000
C     1.058000000    -1.015000000     0.700000000
C     2.007000000    -1.966000000     1.391000000
O     3.182000000    -1.910000000     1.212000000
O     1.580000000    -2.530000000     2.424000000
