17
-93.96669
C    -0.727000000    -0.297000000     1.212000000
H    -1.332000000    -0.462000000     2.100000000
C    -0.979000000     0.793000000     0.355000000
H    -1.802000000     1.480000000     0.532000000
C    -0.248000000     0.908000000    -0.787000000
C    -0.572000000     1.955000000    -1.820000000
H    -0.104000000     2.872000000    -1.458000000
H    -0.289000000     1.745000000    -2.854000000
H    -1.659000000     2.044000000    -1.871000000
C     0.705000000    -0.031000000    -1.112000000
H     1.273000000     0.058000000    -2.035000000
C     1.040000000    -1.085000000    -0.219000000
H     1.883000000    -1.759000000    -0.349000000
C     0.314000000    -1.145000000     1.001000000
C     0.736000000    -2.100000000     2.130000000
O     1.569000000    -2.967000000     1.984000000
O     0.187000000    -2.014000000     3.193000000
