17
-79.93131
C    -0.918000000     0.861000000     0.773000000
H    -1.685000000     1.493000000     1.214000000
C    -0.910000000     0.720000000    -0.586000000
H    -1.472000000     1.406000000    -1.214000000
C     0.096000000     0.034000000    -1.235000000
C    -0.038000000    -0.161000000    -2.757000000
H     0.130000000    -1.223000000    -2.945000000
H    -1.006000000     0.108000000    -3.185000000
H     0.723000000     0.388000000    -3.315000000
C     0.987000000    -0.671000000    -0.440000000
H     1.658000000    -1.382000000    -0.915000000
C     0.927000000    -0.675000000     0.973000000
H     1.597000000    -1.385000000     1.451000000
C    -0.016000000     0.155000000     1.575000000
C    -0.005000000     0.171000000     3.093000000
O     0.721000000    -0.563000000     3.764000000
O    -0.794000000     0.732000000     3.750000000
