17
-99.32043
C    -0.688000000     0.704000000     1.160000000
H    -1.310000000     1.160000000     1.926000000
C    -0.719000000     1.156000000    -0.171000000
H    -1.373000000     1.967000000    -0.480000000
C    -0.061000000     0.397000000    -1.138000000
C    -0.102000000     0.771000000    -2.582000000
H     0.891000000     0.953000000    -2.999000000
H    -0.418000000    -0.092000000    -3.171000000
H    -0.886000000     1.482000000    -2.849000000
C     0.675000000    -0.722000000    -0.806000000
H     1.159000000    -1.326000000    -1.570000000
C     0.719000000    -1.129000000     0.491000000
H     1.324000000    -2.016000000     0.664000000
C     0.024000000    -0.475000000     1.509000000
C     0.197000000    -0.822000000     2.971000000
O     0.894000000    -1.832000000     3.203000000
O    -0.330000000    -0.175000000     3.844000000
