17
-93.22312
C    -0.607000000     0.861000000     1.016000000
H    -1.099000000     1.587000000     1.658000000
C    -0.874000000     0.846000000    -0.324000000
H    -1.618000000     1.503000000    -0.766000000
C    -0.252000000    -0.059000000    -1.192000000
C    -0.622000000    -0.108000000    -2.669000000
H    -1.502000000     0.513000000    -2.847000000
H     0.110000000     0.267000000    -3.387000000
H    -0.929000000    -1.067000000    -3.090000000
C     0.673000000    -0.932000000    -0.705000000
H     1.232000000    -1.678000000    -1.265000000
C     1.024000000    -0.821000000     0.659000000
H     1.884000000    -1.306000000     1.114000000
C     0.356000000     0.025000000     1.549000000
C     0.691000000     0.146000000     3.018000000
O     1.564000000    -0.535000000     3.442000000
O    -0.037000000     0.758000000     3.783000000
