17
-88.13648
C    -0.783000000     1.243000000     0.307000000
H    -1.581000000     1.960000000     0.482000000
C    -0.730000000     0.560000000    -0.953000000
H    -1.327000000     0.789000000    -1.833000000
C     0.092000000    -0.505000000    -1.067000000
C     0.209000000    -1.147000000    -2.399000000
H     0.839000000    -2.038000000    -2.362000000
H    -0.699000000    -1.322000000    -2.979000000
H     0.701000000    -0.407000000    -3.034000000
C     0.828000000    -1.007000000    -0.040000000
H     1.445000000    -1.877000000    -0.248000000
C     0.670000000    -0.432000000     1.248000000
H     1.154000000    -0.958000000     2.067000000
C    -0.119000000     0.706000000     1.434000000
C    -0.217000000     1.287000000     2.771000000
O     0.527000000     0.974000000     3.701000000
O    -1.003000000     2.174000000     2.903000000
