17
-83.70979
C    -1.297000000    -0.415000000     0.569000000
H    -2.292000000    -0.752000000     0.849000000
C    -1.027000000    -0.260000000    -0.782000000
H    -1.736000000    -0.553000000    -1.552000000
C     0.296000000     0.075000000    -1.230000000
C     0.743000000    -0.095000000    -2.584000000
H     1.742000000    -0.535000000    -2.606000000
H     0.102000000    -0.787000000    -3.134000000
H     0.645000000     0.802000000    -3.200000000
C     1.080000000     0.585000000    -0.288000000
H     2.000000000     1.071000000    -0.602000000
C     0.817000000     0.570000000     1.086000000
H     1.573000000     0.843000000     1.818000000
C    -0.373000000     0.028000000     1.524000000
C    -0.651000000    -0.178000000     2.987000000
O    -0.005000000     0.356000000     3.893000000
O    -1.619000000    -0.762000000     3.253000000
