17
-96.04299
C    -1.474000000     0.262000000     0.392000000
H    -2.492000000     0.561000000     0.631000000
C    -0.966000000     0.417000000    -0.931000000
H    -1.538000000     0.812000000    -1.767000000
C     0.380000000     0.078000000    -1.176000000
C     1.152000000     0.296000000    -2.476000000
H     0.435000000     0.342000000    -3.298000000
H     1.731000000     1.217000000    -2.390000000
H     1.815000000    -0.539000000    -2.714000000
C     1.173000000    -0.432000000    -0.166000000
H     2.238000000    -0.641000000    -0.219000000
C     0.673000000    -0.483000000     1.134000000
H     1.325000000    -0.582000000     1.998000000
C    -0.622000000    -0.116000000     1.416000000
C    -1.139000000    -0.274000000     2.838000000
O    -0.354000000    -0.688000000     3.665000000
O    -2.332000000    -0.225000000     3.064000000
