17
-93.49013
C    -0.234000000     0.972000000     1.057000000
H    -0.169000000     1.798000000     1.760000000
C     0.191000000     1.300000000    -0.226000000
H     0.553000000     2.307000000    -0.418000000
C     0.401000000     0.275000000    -1.136000000
C     0.944000000     0.584000000    -2.497000000
H     0.184000000     0.160000000    -3.157000000
H     1.053000000     1.645000000    -2.734000000
H     1.921000000     0.115000000    -2.628000000
C     0.046000000    -1.004000000    -0.790000000
H     0.230000000    -1.745000000    -1.564000000
C    -0.452000000    -1.317000000     0.457000000
H    -0.738000000    -2.340000000     0.690000000
C    -0.518000000    -0.349000000     1.448000000
C    -0.995000000    -0.675000000     2.882000000
O    -1.489000000    -1.767000000     3.011000000
O    -0.927000000     0.041000000     3.846000000
