17
-92.95896
C    -0.275000000     0.953000000     1.080000000
H    -0.341000000     1.796000000     1.763000000
C     0.676000000     1.100000000     0.076000000
H     1.254000000     2.017000000    -0.009000000
C     0.917000000     0.083000000    -0.826000000
C     1.762000000     0.236000000    -2.039000000
H     1.718000000    -0.616000000    -2.721000000
H     1.492000000     1.190000000    -2.497000000
H     2.777000000     0.407000000    -1.675000000
C     0.250000000    -1.066000000    -0.705000000
H     0.390000000    -1.842000000    -1.453000000
C    -0.707000000    -1.228000000     0.363000000
H    -1.358000000    -2.096000000     0.425000000
C    -1.097000000    -0.168000000     1.138000000
C    -2.197000000    -0.225000000     2.130000000
O    -2.635000000    -1.341000000     2.337000000
O    -2.631000000     0.806000000     2.612000000
