144
-2833.61822
O     0.536000000    -1.597000000     5.796000000
H     0.984000000    -1.885000000     5.000000000
H     1.222000000    -1.575000000     6.462000000
O     1.404000000     2.310000000    -4.200000000
H     0.766000000     2.794000000    -3.676000000
H     1.200000000     1.389000000    -4.036000000
O     1.534000000    -3.020000000     3.603000000
H     1.820000000    -3.735000000     4.171000000
H     0.630000000    -3.240000000     3.377000000
O     1.784000000     5.284000000    -4.449000000
H     0.847000000     5.475000000    -4.411000000
H     1.831000000     4.367000000    -4.718000000
O    -1.119000000    -2.084000000    -5.929000000
H    -0.916000000    -1.381000000    -6.546000000
H    -1.491000000    -1.637000000    -5.169000000
O     3.279000000     4.212000000    -0.435000000
H     3.703000000     4.921000000    -0.918000000
H     3.999000000     3.755000000     0.000000000
O    -1.943000000    -0.180000000     5.856000000
H    -1.047000000    -0.372000000     5.579000000
H    -1.870000000     0.634000000     6.355000000
O    -1.307000000     1.386000000    -5.671000000
H    -1.006000000     1.203000000    -6.561000000
H    -0.687000000     0.923000000    -5.108000000
O     4.443000000     3.869000000     3.153000000
H     4.382000000     3.700000000     4.093000000
H     5.174000000     3.326000000     2.858000000
O    -4.199000000    -1.199000000    -8.080000000
H    -3.422000000    -0.997000000    -7.559000000
H    -4.308000000    -0.440000000    -8.652000000
O    -0.724000000    -0.131000000    -8.007000000
H     0.206000000    -0.355000000    -8.008000000
H    -0.960000000    -0.084000000    -8.934000000
O     2.213000000    -0.740000000    -7.789000000
H     1.562000000    -1.412000000    -7.990000000
H     3.046000000    -1.120000000    -8.068000000
O     1.144000000    -3.004000000    -5.232000000
H     0.732000000    -3.292000000    -4.418000000
H     0.441000000    -2.570000000    -5.716000000
O     3.460000000    -4.412000000    -4.344000000
H     2.686000000    -4.037000000    -4.763000000
H     4.197000000    -4.069000000    -4.850000000
O    -3.923000000    -3.680000000     3.311000000
H    -4.179000000    -2.948000000     2.750000000
H    -4.190000000    -3.412000000     4.191000000
O     5.677000000    -0.506000000    -4.812000000
H     5.967000000    -0.329000000    -3.917000000
H     4.731000000    -0.631000000    -4.736000000
O    -4.088000000    -3.243000000    -0.827000000
H    -4.380000000    -2.354000000    -0.625000000
H    -3.591000000    -3.153000000    -1.640000000
O     5.385000000     2.340000000     0.582000000
H     5.077000000     1.438000000     0.678000000
H     6.033000000     2.447000000     1.278000000
O     3.726000000     2.961000000    -6.008000000
H     3.446000000     2.660000000    -6.872000000
H     3.048000000     2.643000000    -5.412000000
O    -1.304000000    -3.580000000     2.214000000
H    -1.880000000    -3.734000000     2.963000000
H    -1.717000000    -4.055000000     1.493000000
O     0.885000000     4.051000000    -1.970000000
H     0.888000000     5.007000000    -1.919000000
H     1.759000000     3.794000000    -1.677000000
O     0.032000000    -3.771000000    -2.407000000
H     0.100000000    -3.715000000    -1.454000000
H    -0.907000000    -3.850000000    -2.576000000
O    -4.197000000    -1.399000000     1.566000000
H    -3.688000000    -0.850000000     2.162000000
H    -5.105000000    -1.271000000     1.838000000
O    -1.108000000     3.860000000     3.804000000
H    -1.845000000     3.651000000     3.231000000
H    -0.643000000     4.562000000     3.351000000
O     2.741000000    -2.310000000    -2.322000000
H     2.023000000    -2.859000000    -2.008000000
H     2.632000000    -2.294000000    -3.273000000
O     1.038000000     3.616000000     5.501000000
H     1.042000000     4.526000000     5.206000000
H     0.392000000     3.185000000     4.941000000
O    -4.447000000     2.680000000    -0.924000000
H    -3.555000000     2.993000000    -0.773000000
H    -4.965000000     3.477000000    -1.035000000
O     4.999000000    -0.291000000     5.496000000
H     5.068000000     0.658000000     5.392000000
H     4.826000000    -0.616000000     4.612000000
O     2.829000000    -0.371000000    -5.102000000
H     2.548000000    -0.630000000    -5.980000000
H     2.037000000    -0.429000000    -4.569000000
O    -4.945000000    -2.208000000    -5.217000000
H    -5.873000000    -2.295000000    -4.998000000
H    -4.643000000    -1.470000000    -4.689000000
O     1.595000000     1.674000000     7.539000000
H     1.001000000     2.150000000     6.959000000
H     2.464000000     1.822000000     7.166000000
O    -3.920000000     1.821000000    -5.197000000
H    -2.995000000     1.739000000    -5.431000000
H    -4.069000000     1.123000000    -4.560000000
O     3.330000000    -3.516000000     1.380000000
H     4.183000000    -3.809000000     1.703000000
H     2.782000000    -3.465000000     2.163000000
O     3.557000000     3.431000000     5.937000000
H     3.740000000     4.272000000     6.356000000
H     2.604000000     3.409000000     5.849000000
O    -2.526000000    -3.454000000    -3.033000000
H    -2.187000000    -2.561000000    -3.080000000
H    -2.808000000    -3.651000000    -3.927000000
O    -3.026000000     2.927000000     1.640000000
H    -2.434000000     3.060000000     0.899000000
H    -3.098000000     1.976000000     1.721000000
O    -1.430000000     2.595000000    -0.452000000
H    -0.803000000     3.137000000    -0.931000000
H    -0.911000000     1.859000000    -0.127000000
O    -2.178000000    -5.386000000    -0.056000000
H    -2.508000000    -4.670000000    -0.598000000
H    -2.669000000    -6.154000000    -0.348000000
O    -3.312000000     0.584000000     3.400000000
H    -3.018000000     0.400000000     4.292000000
H    -4.138000000     1.054000000     3.513000000
O     0.545000000    -3.403000000     0.196000000
H     1.365000000    -3.389000000     0.689000000
H    -0.112000000    -3.085000000     0.815000000
O    -4.143000000    -0.448000000    -3.363000000
H    -4.176000000    -0.391000000    -2.408000000
H    -3.208000000    -0.453000000    -3.571000000
O     4.562000000    -0.322000000     0.710000000
H     3.980000000    -0.501000000    -0.028000000
H     5.358000000    -0.815000000     0.512000000
O     3.813000000    -1.265000000     3.286000000
H     3.017000000    -1.794000000     3.241000000
H     4.072000000    -1.141000000     2.373000000
O    -1.704000000     2.663000000     6.223000000
H    -1.556000000     2.955000000     5.324000000
H    -2.437000000     3.195000000     6.531000000
O    -4.354000000     0.042000000    -0.774000000
H    -4.277000000    -0.170000000     0.156000000
H    -4.756000000     0.911000000    -0.790000000
O     2.162000000     2.146000000    -8.057000000
H     1.892000000     1.244000000    -7.888000000
H     1.416000000     2.676000000    -7.779000000
O     1.016000000     4.856000000     2.040000000
H     0.454000000     4.378000000     1.429000000
H     1.903000000     4.576000000     1.817000000
O     4.083000000     2.579000000    -3.180000000
H     4.691000000     1.884000000    -2.926000000
H     3.269000000     2.121000000    -3.389000000
