144
-2804.15225
O    -4.260000000     1.644000000     2.996000000
H    -3.367000000     1.738000000     3.327000000
H    -4.256000000     0.809000000     2.528000000
O    -2.979000000     0.021000000     6.330000000
H    -3.036000000     0.749000000     6.949000000
H    -3.888000000    -0.174000000     6.104000000
O    -6.261000000     4.068000000    -1.069000000
H    -6.916000000     3.905000000    -1.749000000
H    -6.707000000     4.630000000    -0.436000000
O    -3.607000000     3.257000000    -0.575000000
H    -3.465000000     2.333000000    -0.369000000
H    -4.528000000     3.306000000    -0.830000000
O    -5.009000000     4.119000000     2.258000000
H    -5.043000000     4.092000000     1.301000000
H    -4.937000000     3.202000000     2.521000000
O     6.605000000     3.899000000    -1.691000000
H     7.406000000     3.902000000    -2.215000000
H     6.738000000     3.196000000    -1.055000000
O     0.873000000     4.860000000     1.456000000
H     1.490000000     4.282000000     1.009000000
H     0.025000000     4.658000000     1.061000000
O    -7.453000000    -1.278000000    -2.880000000
H    -8.303000000    -1.673000000    -3.075000000
H    -7.249000000    -1.575000000    -1.993000000
O     3.343000000    -5.096000000    -1.255000000
H     2.548000000    -4.789000000    -1.690000000
H     3.044000000    -5.408000000    -0.401000000
O     2.758000000     3.951000000     3.663000000
H     2.662000000     3.022000000     3.873000000
H     2.370000000     4.041000000     2.792000000
O     2.314000000    -2.678000000     3.481000000
H     2.638000000    -2.854000000     4.365000000
H     2.553000000    -3.458000000     2.980000000
O    -1.451000000     5.947000000    -2.130000000
H    -1.806000000     6.836000000    -2.112000000
H    -1.218000000     5.764000000    -1.220000000
O    -1.354000000    -3.506000000     5.975000000
H    -1.799000000    -2.721000000     5.656000000
H    -0.643000000    -3.173000000     6.522000000
O    -4.974000000    -4.096000000    -0.506000000
H    -4.947000000    -3.140000000    -0.476000000
H    -5.875000000    -4.318000000    -0.273000000
O    -7.168000000     1.354000000     4.312000000
H    -8.024000000     1.771000000     4.412000000
H    -7.008000000     1.360000000     3.369000000
O    -1.048000000     1.617000000    -4.564000000
H    -1.318000000     2.526000000    -4.431000000
H    -1.735000000     1.099000000    -4.144000000
O    -5.384000000    -1.461000000    -0.524000000
H    -5.849000000    -0.710000000    -0.155000000
H    -4.462000000    -1.204000000    -0.505000000
O    -2.041000000    -1.496000000     4.347000000
H    -2.346000000    -0.898000000     5.029000000
H    -2.679000000    -1.399000000     3.640000000
O    -1.065000000    -6.039000000     0.681000000
H    -1.084000000    -5.603000000    -0.171000000
H    -0.144000000    -6.018000000     0.940000000
O    -2.935000000    -5.774000000     4.298000000
H    -3.241000000    -5.690000000     3.395000000
H    -2.365000000    -5.016000000     4.430000000
O    -1.646000000     4.618000000     0.672000000
H    -2.213000000     5.186000000     1.195000000
H    -2.236000000     4.208000000     0.039000000
O     4.990000000     1.665000000     2.124000000
H     4.319000000     1.420000000     2.761000000
H     5.289000000     2.527000000     2.411000000
O    -4.751000000    -2.563000000     2.495000000
H    -4.270000000    -1.752000000     2.333000000
H    -4.186000000    -3.251000000     2.143000000
O     1.792000000    -6.135000000     1.076000000
H     2.512000000    -6.017000000     1.696000000
H     1.779000000    -7.076000000     0.900000000
O     3.028000000    -2.144000000    -5.474000000
H     2.882000000    -3.046000000    -5.758000000
H     2.307000000    -1.962000000    -4.872000000
O     4.849000000    -0.521000000    -4.355000000
H     4.373000000    -1.297000000    -4.651000000
H     4.340000000     0.216000000    -4.692000000
O     0.168000000    -1.339000000    -4.403000000
H     0.141000000    -1.776000000    -5.254000000
H     0.318000000    -0.417000000    -4.610000000
O     4.892000000    -2.959000000     0.415000000
H     4.852000000    -2.465000000    -0.404000000
H     4.703000000    -3.862000000     0.159000000
O     5.685000000    -1.379000000     2.377000000
H     5.706000000    -0.607000000     1.811000000
H     5.527000000    -2.110000000     1.779000000
O    -5.552000000     3.158000000    -4.192000000
H    -6.446000000     3.264000000    -3.865000000
H    -5.337000000     2.244000000    -4.008000000
O    -2.369000000     3.733000000    -3.574000000
H    -2.132000000     4.556000000    -3.146000000
H    -3.314000000     3.656000000    -3.439000000
O    -3.162000000    -1.330000000    -2.635000000
H    -2.219000000    -1.167000000    -2.628000000
H    -3.240000000    -2.284000000    -2.631000000
O     7.055000000     1.832000000     0.091000000
H     7.724000000     1.598000000     0.734000000
H     6.231000000     1.790000000     0.576000000
O    -8.215000000    -2.128000000     0.156000000
H    -7.647000000    -1.663000000     0.769000000
H    -7.828000000    -3.001000000     0.087000000
O    -1.034000000    -5.166000000    -1.961000000
H    -0.631000000    -5.653000000    -2.681000000
H    -0.892000000    -4.247000000    -2.186000000
O    -1.620000000     2.550000000     3.924000000
H    -1.018000000     2.390000000     3.197000000
H    -1.135000000     2.273000000     4.702000000
O     2.900000000     3.866000000    -0.088000000
H     3.793000000     4.148000000     0.110000000
H     2.972000000     3.416000000    -0.930000000
O    -6.405000000     0.882000000     0.076000000
H    -5.487000000     0.835000000     0.340000000
H    -6.401000000     1.430000000    -0.709000000
O    -5.001000000     2.902000000     5.876000000
H    -5.913000000     3.191000000     5.831000000
H    -4.823000000     2.535000000     5.011000000
O     1.011000000     3.215000000    -5.294000000
H     0.610000000     4.044000000    -5.031000000
H     0.404000000     2.545000000    -4.980000000
O     5.250000000    -1.509000000    -1.788000000
H     6.200000000    -1.449000000    -1.885000000
H     4.902000000    -1.180000000    -2.617000000
O     0.577000000    -0.554000000     4.151000000
H     0.988000000    -1.336000000     3.783000000
H    -0.339000000    -0.801000000     4.275000000
O    -5.107000000     0.483000000    -3.373000000
H    -5.927000000     0.030000000    -3.178000000
H    -4.432000000    -0.052000000    -2.956000000
O    -0.203000000    -2.597000000    -2.173000000
H    -0.017000000    -2.090000000    -2.963000000
H     0.195000000    -2.091000000    -1.465000000
O     2.821000000     0.960000000     3.880000000
H     3.468000000     0.267000000     4.011000000
H     2.034000000     0.501000000     3.587000000
O    -8.801000000     1.361000000     1.364000000
H    -7.995000000     1.416000000     0.851000000
H    -8.737000000     0.523000000     1.822000000
O    -5.992000000    -3.630000000     4.531000000
H    -5.733000000    -3.272000000     3.682000000
H    -6.274000000    -4.524000000     4.338000000
O     3.265000000     1.528000000    -5.534000000
H     3.260000000     1.109000000    -6.395000000
H     2.409000000     1.953000000    -5.470000000
