144
-2827.03520
O    -0.755000000    -2.319000000     5.220000000
H    -1.647000000    -2.190000000     4.898000000
H    -0.270000000    -2.643000000     4.461000000
O     7.004000000     1.674000000    -3.346000000
H     6.338000000     1.762000000    -2.663000000
H     7.186000000     0.735000000    -3.382000000
O    -2.897000000     0.799000000    -4.582000000
H    -2.768000000    -0.130000000    -4.393000000
H    -3.390000000     0.811000000    -5.403000000
O    -0.225000000    -0.201000000    -6.639000000
H    -0.709000000    -0.434000000    -5.846000000
H     0.426000000    -0.897000000    -6.734000000
O    -4.182000000     0.736000000     3.635000000
H    -4.183000000     0.561000000     2.694000000
H    -5.103000000     0.686000000     3.889000000
O    -6.933000000    -1.915000000     0.410000000
H    -6.394000000    -2.316000000    -0.272000000
H    -6.349000000    -1.838000000     1.164000000
O     7.517000000     1.181000000     3.375000000
H     7.176000000     1.511000000     4.207000000
H     6.738000000     0.915000000     2.886000000
O     2.836000000     2.566000000    -4.103000000
H     1.974000000     2.518000000    -4.516000000
H     2.896000000     3.464000000    -3.776000000
O     5.234000000    -1.219000000    -2.122000000
H     5.258000000    -0.265000000    -2.193000000
H     4.304000000    -1.440000000    -2.174000000
O    -4.423000000    -3.842000000     1.516000000
H    -3.990000000    -3.145000000     1.023000000
H    -4.143000000    -4.650000000     1.085000000
O     4.682000000     3.290000000     0.246000000
H     5.472000000     3.828000000     0.293000000
H     4.493000000     3.061000000     1.156000000
O     0.547000000    -0.441000000     7.050000000
H    -0.064000000    -0.399000000     7.786000000
H     0.204000000    -1.140000000     6.493000000
O    -0.504000000    -4.466000000    -0.279000000
H    -0.690000000    -4.556000000     0.656000000
H     0.295000000    -3.941000000    -0.315000000
O    -5.461000000    -5.954000000    -2.272000000
H    -5.730000000    -5.055000000    -2.082000000
H    -4.506000000    -5.914000000    -2.317000000
O    -6.098000000    -1.440000000    -4.219000000
H    -6.934000000    -1.731000000    -4.584000000
H    -5.448000000    -1.704000000    -4.870000000
O    -2.027000000     3.681000000    -5.130000000
H    -2.497000000     4.466000000    -4.849000000
H    -2.345000000     2.991000000    -4.547000000
O     2.015000000     5.151000000    -0.607000000
H     2.348000000     6.029000000    -0.421000000
H     2.387000000     4.931000000    -1.461000000
O     2.124000000     0.289000000     4.692000000
H     1.580000000     0.271000000     5.480000000
H     2.047000000     1.187000000     4.368000000
O     0.660000000     2.210000000    -5.804000000
H    -0.070000000     2.824000000    -5.877000000
H     0.322000000     1.390000000    -6.165000000
O    -0.794000000     4.847000000    -0.514000000
H     0.141000000     4.955000000    -0.688000000
H    -0.988000000     5.493000000     0.165000000
O    -4.162000000     2.663000000     1.207000000
H    -3.212000000     2.546000000     1.185000000
H    -4.512000000     1.773000000     1.239000000
O    -2.640000000     1.865000000    -1.819000000
H    -1.765000000     1.792000000    -1.437000000
H    -2.492000000     1.833000000    -2.764000000
O     3.578000000     5.095000000    -3.203000000
H     4.364000000     5.502000000    -2.838000000
H     3.236000000     5.743000000    -3.819000000
O     4.450000000    -0.353000000     2.551000000
H     3.769000000    -0.668000000     3.146000000
H     4.401000000     0.600000000     2.613000000
O    -2.845000000    -4.972000000    -1.612000000
H    -2.976000000    -4.031000000    -1.494000000
H    -1.936000000    -5.122000000    -1.353000000
O    -5.253000000     1.378000000    -2.150000000
H    -4.341000000     1.526000000    -1.900000000
H    -5.228000000     0.594000000    -2.697000000
O     2.288000000     3.111000000     4.122000000
H     1.424000000     3.124000000     4.533000000
H     2.357000000     3.956000000     3.679000000
O    -0.165000000     2.218000000     5.380000000
H    -0.084000000     1.518000000     6.028000000
H    -1.033000000     2.089000000     4.996000000
O     5.923000000     5.346000000    -1.651000000
H     5.997000000     5.457000000    -0.704000000
H     6.007000000     4.402000000    -1.789000000
O    -1.621000000    -1.775000000    -4.750000000
H    -0.740000000    -2.149000000    -4.739000000
H    -1.911000000    -1.817000000    -3.839000000
O     0.857000000    -2.921000000     2.744000000
H     0.028000000    -3.344000000     2.521000000
H     1.278000000    -2.759000000     1.899000000
O    -5.416000000    -2.923000000    -1.701000000
H    -5.642000000    -2.464000000    -2.509000000
H    -4.519000000    -2.649000000    -1.512000000
O    -5.504000000    -3.098000000     3.754000000
H    -5.879000000    -3.835000000     4.236000000
H    -5.125000000    -3.493000000     2.969000000
O     4.451000000     1.677000000    -1.954000000
H     4.234000000     2.151000000    -1.152000000
H     3.809000000     1.983000000    -2.595000000
O    -4.925000000     0.203000000     1.064000000
H    -4.481000000    -0.451000000     0.524000000
H    -5.823000000     0.218000000     0.733000000
O     2.652000000     5.198000000     2.272000000
H     3.138000000     5.985000000     2.025000000
H     2.495000000     4.744000000     1.444000000
O     0.714000000     5.870000000     4.314000000
H     1.210000000     5.775000000     5.127000000
H     1.298000000     5.533000000     3.636000000
O    -2.196000000    -3.709000000    -7.131000000
H    -1.858000000    -3.267000000    -6.352000000
H    -3.049000000    -3.303000000    -7.285000000
O     2.705000000    -2.276000000    -2.392000000
H     3.184000000    -3.063000000    -2.136000000
H     2.024000000    -2.593000000    -2.985000000
O    -1.257000000     3.324000000     1.731000000
H    -0.685000000     2.561000000     1.812000000
H    -1.145000000     3.613000000     0.825000000
O     0.763000000    -3.002000000    -4.409000000
H     0.753000000    -3.959000000    -4.393000000
H     1.177000000    -2.780000000    -5.243000000
O     2.501000000    -2.401000000     4.744000000
H     2.265000000    -1.480000000     4.850000000
H     1.898000000    -2.728000000     4.076000000
O     4.631000000     2.344000000     2.802000000
H     3.780000000     2.529000000     3.200000000
H     5.241000000     2.918000000     3.265000000
O     3.227000000    -0.029000000    -5.698000000
H     2.955000000     0.621000000    -6.345000000
H     2.786000000     0.236000000    -4.891000000
O    -3.573000000    -1.430000000     5.116000000
H    -3.667000000    -0.629000000     4.600000000
H    -4.133000000    -2.068000000     4.673000000
O     1.412000000    -2.354000000     0.118000000
H     0.898000000    -1.547000000     0.133000000
H     1.922000000    -2.299000000    -0.690000000
O     6.357000000    -1.589000000     0.646000000
H     5.621000000    -1.235000000     1.146000000
H     6.138000000    -1.401000000    -0.267000000
O    -1.587000000    -4.135000000     2.742000000
H    -2.505000000    -3.868000000     2.708000000
H    -1.610000000    -5.035000000     3.068000000
