144
-2836.46707
O     4.706000000     2.724000000    -4.296000000
H     5.362000000     3.401000000    -4.132000000
H     4.461000000     2.411000000    -3.426000000
O    -2.445000000     1.598000000    -4.434000000
H    -1.730000000     1.091000000    -4.819000000
H    -2.670000000     1.125000000    -3.633000000
O    -5.117000000    -1.751000000     3.320000000
H    -5.210000000    -2.504000000     2.737000000
H    -5.491000000    -1.020000000     2.829000000
O     0.450000000    -4.152000000     3.316000000
H     0.532000000    -5.075000000     3.555000000
H    -0.323000000    -3.848000000     3.792000000
O    -6.859000000     0.470000000     1.872000000
H    -6.690000000     1.279000000     2.355000000
H    -7.761000000     0.241000000     2.097000000
O    -8.400000000    -2.842000000     0.991000000
H    -9.135000000    -2.358000000     1.366000000
H    -8.008000000    -2.235000000     0.363000000
O    -6.710000000    -1.144000000    -0.270000000
H    -6.793000000    -0.469000000     0.403000000
H    -5.824000000    -1.030000000    -0.615000000
O     3.539000000     0.219000000     5.245000000
H     3.625000000     0.842000000     5.966000000
H     3.028000000    -0.502000000     5.611000000
O    -1.132000000     4.324000000    -1.376000000
H    -0.374000000     4.435000000    -1.950000000
H    -1.875000000     4.242000000    -1.974000000
O     4.632000000     2.044000000    -1.477000000
H     4.967000000     1.173000000    -1.686000000
H     4.644000000     2.082000000    -0.521000000
O    -4.038000000    -3.091000000    -0.207000000
H    -3.983000000    -2.167000000    -0.453000000
H    -4.377000000    -3.527000000    -0.989000000
O     3.449000000     4.289000000     1.531000000
H     4.263000000     3.875000000     1.246000000
H     3.000000000     3.612000000     2.037000000
O    -5.351000000    -4.219000000    -2.163000000
H    -5.616000000    -4.752000000    -2.913000000
H    -5.602000000    -3.327000000    -2.403000000
O    -4.686000000    -2.842000000    -5.607000000
H    -5.107000000    -2.394000000    -4.874000000
H    -3.782000000    -2.528000000    -5.593000000
O    -2.095000000    -3.854000000     1.760000000
H    -1.430000000    -4.256000000     1.200000000
H    -2.868000000    -3.782000000     1.200000000
O    -7.075000000     2.573000000    -0.055000000
H    -6.322000000     2.221000000    -0.530000000
H    -7.244000000     1.932000000     0.635000000
O     4.982000000    -2.250000000     0.659000000
H     4.424000000    -2.696000000     1.297000000
H     5.246000000    -1.441000000     1.096000000
O    -2.806000000     4.225000000    -3.400000000
H    -2.741000000     3.371000000    -3.826000000
H    -3.412000000     4.722000000    -3.949000000
O     1.214000000     4.730000000    -3.004000000
H     1.403000000     5.016000000    -3.897000000
H     1.873000000     4.061000000    -2.821000000
O    -4.946000000     1.500000000    -5.873000000
H    -5.353000000     2.317000000    -6.161000000
H    -4.080000000     1.761000000    -5.560000000
O     4.772000000     4.068000000     5.010000000
H     5.680000000     3.770000000     4.958000000
H     4.301000000     3.508000000     4.393000000
O    -6.680000000     1.327000000    -3.577000000
H    -6.041000000     1.344000000    -4.290000000
H    -6.223000000     1.726000000    -2.836000000
O     0.962000000    -3.346000000     0.713000000
H     0.809000000    -3.653000000     1.606000000
H     0.844000000    -2.397000000     0.763000000
O    -0.140000000     3.501000000     1.243000000
H    -0.247000000     3.841000000     0.354000000
H    -0.559000000     2.641000000     1.222000000
O     0.366000000    -4.321000000    -1.787000000
H     0.643000000    -3.701000000    -1.112000000
H     0.522000000    -3.862000000    -2.612000000
O    -3.402000000     3.745000000     0.303000000
H    -2.643000000     4.254000000     0.020000000
H    -3.322000000     3.704000000     1.256000000
O    -8.253000000    -2.246000000    -2.346000000
H    -8.595000000    -1.607000000    -2.972000000
H    -7.813000000    -1.717000000    -1.681000000
O     3.671000000     0.315000000    -5.793000000
H     3.933000000     0.437000000    -6.705000000
H     3.904000000     1.139000000    -5.365000000
O    -4.849000000     1.857000000    -1.628000000
H    -4.265000000     2.615000000    -1.603000000
H    -4.264000000     1.108000000    -1.746000000
O     3.014000000    -3.667000000     2.695000000
H     2.148000000    -3.560000000     3.090000000
H     3.078000000    -4.603000000     2.508000000
O    -1.672000000     0.526000000     6.782000000
H    -2.225000000     0.973000000     7.423000000
H    -2.287000000     0.168000000     6.142000000
O     1.758000000     6.301000000     2.091000000
H     1.588000000     6.705000000     1.241000000
H     2.061000000     5.418000000     1.880000000
O     6.896000000     4.026000000    -1.314000000
H     6.780000000     4.338000000    -2.211000000
H     6.185000000     3.400000000    -1.184000000
O    -2.070000000     1.610000000     3.244000000
H    -2.712000000     1.273000000     2.619000000
H    -2.257000000     1.138000000     4.056000000
O    -5.185000000    -1.375000000    -3.248000000
H    -5.960000000    -0.830000000    -3.387000000
H    -4.531000000    -0.775000000    -2.891000000
O     5.273000000     2.150000000     1.196000000
H     6.124000000     2.495000000     1.468000000
H     5.165000000     1.349000000     1.708000000
O    -4.157000000     0.831000000     1.521000000
H    -3.993000000     0.078000000     0.953000000
H    -4.898000000     1.281000000     1.115000000
O     1.766000000     3.232000000     3.449000000
H     1.464000000     2.579000000     4.081000000
H     0.995000000     3.421000000     2.915000000
O    -3.261000000    -0.814000000     5.023000000
H    -2.739000000    -1.578000000     5.267000000
H    -3.706000000    -1.076000000     4.217000000
O    -1.917000000    -2.093000000    -4.755000000
H    -1.656000000    -1.422000000    -5.386000000
H    -2.184000000    -1.601000000    -3.979000000
O     0.515000000    -3.090000000    -4.328000000
H    -0.375000000    -2.737000000    -4.320000000
H     1.075000000    -2.332000000    -4.161000000
O    -5.906000000    -3.756000000     1.606000000
H    -6.759000000    -3.478000000     1.271000000
H    -5.328000000    -3.725000000     0.843000000
O    -0.103000000     2.373000000     5.396000000
H    -0.350000000     1.773000000     6.100000000
H    -0.476000000     1.982000000     4.606000000
O     1.769000000    -0.640000000    -3.825000000
H     1.421000000     0.050000000    -3.260000000
H     2.158000000    -0.171000000    -4.564000000
O     4.988000000    -0.845000000    -1.825000000
H     5.039000000    -1.509000000    -1.137000000
H     4.681000000    -1.322000000    -2.596000000
O    -0.136000000     0.276000000    -5.837000000
H     0.327000000    -0.489000000    -6.178000000
H     0.349000000     1.024000000    -6.185000000
O    -2.102000000    -3.342000000     4.534000000
H    -2.324000000    -3.474000000     3.612000000
H    -2.613000000    -4.003000000     5.000000000
O     4.973000000    -0.201000000     2.733000000
H     5.575000000    -0.858000000     3.083000000
H     4.333000000    -0.066000000     3.432000000
