144
-2798.08620
O    -1.377000000     0.018000000     3.188000000
H    -1.123000000    -0.295000000     2.320000000
H    -1.732000000    -0.755000000     3.627000000
O    -0.182000000     2.127000000    -4.211000000
H    -0.954000000     1.839000000    -3.724000000
H    -0.526000000     2.729000000    -4.872000000
O     4.461000000    -2.179000000     5.476000000
H     5.194000000    -1.725000000     5.062000000
H     4.859000000    -2.942000000     5.897000000
O    -5.409000000     1.715000000    -6.858000000
H    -5.656000000     1.400000000    -5.988000000
H    -5.641000000     2.644000000    -6.851000000
O    -1.737000000    -4.905000000     3.567000000
H    -2.153000000    -4.141000000     3.167000000
H    -1.351000000    -4.571000000     4.376000000
O     3.616000000     4.140000000     1.922000000
H     3.129000000     4.910000000     1.628000000
H     3.150000000     3.846000000     2.705000000
O    -1.509000000    -6.660000000    -0.639000000
H    -2.429000000    -6.479000000    -0.832000000
H    -1.414000000    -6.452000000     0.290000000
O    -7.501000000    -3.111000000    -2.036000000
H    -7.240000000    -3.712000000    -1.339000000
H    -6.846000000    -2.413000000    -2.009000000
O     2.017000000    -0.185000000     5.435000000
H     2.359000000    -1.078000000     5.406000000
H     1.066000000    -0.291000000     5.411000000
O     2.121000000     0.875000000    -3.827000000
H     2.365000000     0.890000000    -4.752000000
H     1.206000000     1.156000000    -3.816000000
O     5.544000000    -3.306000000     2.702000000
H     5.376000000    -2.386000000     2.906000000
H     6.248000000    -3.283000000     2.054000000
O     2.622000000     6.702000000     1.057000000
H     2.976000000     6.450000000     0.204000000
H     1.716000000     6.395000000     1.040000000
O     2.391000000     4.582000000    -3.447000000
H     2.155000000     5.361000000    -2.941000000
H     2.824000000     4.008000000    -2.815000000
O    -5.370000000     3.992000000    -3.218000000
H    -4.497000000     4.383000000    -3.180000000
H    -5.440000000     3.650000000    -4.109000000
O     0.032000000     5.951000000     0.947000000
H    -0.500000000     6.700000000     1.215000000
H     0.044000000     5.379000000     1.715000000
O    -2.942000000    -3.696000000    -2.380000000
H    -3.005000000    -2.751000000    -2.240000000
H    -3.734000000    -4.051000000    -1.975000000
O    -3.167000000     5.730000000    -0.581000000
H    -2.264000000     5.924000000    -0.329000000
H    -3.087000000     5.083000000    -1.281000000
O     5.939000000    -0.623000000    -1.424000000
H     5.064000000    -0.873000000    -1.720000000
H     5.817000000     0.232000000    -1.011000000
O     2.237000000    -2.474000000    -0.745000000
H     2.487000000    -3.096000000    -0.062000000
H     1.527000000    -1.963000000    -0.356000000
O     3.531000000    -1.243000000    -2.840000000
H     3.112000000    -0.398000000    -3.005000000
H     2.946000000    -1.683000000    -2.224000000
O    -2.573000000     2.998000000    -1.335000000
H    -2.520000000     2.225000000    -1.897000000
H    -1.858000000     3.561000000    -1.634000000
O    -3.753000000     2.080000000     0.902000000
H    -4.601000000     1.788000000     0.568000000
H    -3.351000000     2.540000000     0.166000000
O     6.809000000    -2.672000000     0.266000000
H     6.684000000    -3.426000000    -0.311000000
H     6.599000000    -1.915000000    -0.280000000
O    -2.111000000    -1.829000000    -5.792000000
H    -2.904000000    -1.644000000    -5.288000000
H    -1.903000000    -1.001000000    -6.224000000
O    -4.448000000    -1.187000000    -4.366000000
H    -3.747000000    -1.225000000    -3.716000000
H    -4.735000000    -0.274000000    -4.356000000
O    -0.353000000    -0.830000000     6.629000000
H    -0.290000000     0.125000000     6.622000000
H    -0.360000000    -1.064000000     7.557000000
O    -4.374000000     1.484000000    -4.226000000
H    -3.903000000     2.067000000    -4.821000000
H    -3.768000000     1.344000000    -3.498000000
O    -4.583000000    -1.013000000     1.896000000
H    -4.519000000    -0.873000000     0.951000000
H    -5.517000000    -0.931000000     2.088000000
O    -0.842000000    -5.213000000    -3.141000000
H    -0.773000000    -5.949000000    -2.533000000
H    -1.602000000    -4.718000000    -2.834000000
O     1.737000000     3.580000000     4.014000000
H     1.045000000     4.234000000     3.907000000
H     1.376000000     2.948000000     4.635000000
O     0.225000000     0.027000000    -6.187000000
H    -0.137000000     0.613000000    -5.522000000
H    -0.399000000     0.074000000    -6.912000000
O    -5.379000000    -0.918000000    -1.054000000
H    -4.526000000    -0.828000000    -1.477000000
H    -5.835000000    -0.101000000    -1.255000000
O    -0.472000000     5.308000000    -1.669000000
H     0.091000000     5.868000000    -2.202000000
H    -0.194000000     5.475000000    -0.768000000
O     2.012000000     3.659000000    -6.000000000
H     2.033000000     4.394000000    -6.613000000
H     1.987000000     4.069000000    -5.135000000
O    -6.718000000     1.486000000    -1.666000000
H    -7.418000000     0.963000000    -2.056000000
H    -6.559000000     2.185000000    -2.299000000
O    -0.991000000     4.831000000    -4.676000000
H    -1.842000000     5.268000000    -4.630000000
H    -0.691000000     4.797000000    -3.768000000
O     0.166000000    -3.287000000    -4.915000000
H    -0.485000000    -2.635000000    -5.175000000
H    -0.296000000    -3.852000000    -4.296000000
O    -2.960000000    -2.006000000     3.925000000
H    -3.576000000    -1.606000000     3.310000000
H    -3.467000000    -2.693000000     4.358000000
O    -2.979000000     3.254000000    -6.354000000
H    -2.038000000     3.243000000    -6.527000000
H    -3.337000000     2.583000000    -6.935000000
O     4.009000000     1.246000000     4.085000000
H     3.274000000     0.821000000     4.526000000
H     3.630000000     2.030000000     3.688000000
O    -1.718000000     2.649000000     2.697000000
H    -1.396000000     1.798000000     2.992000000
H    -2.499000000     2.445000000     2.183000000
O     1.445000000    -3.307000000     4.121000000
H     1.972000000    -3.447000000     4.908000000
H     0.545000000    -3.473000000     4.403000000
O    -5.355000000    -2.494000000    -6.525000000
H    -4.972000000    -2.348000000    -5.659000000
H    -6.279000000    -2.269000000    -6.419000000
O     5.316000000     2.246000000    -0.010000000
H     4.654000000     2.265000000    -0.701000000
H     4.887000000     2.652000000     0.743000000
O     4.807000000     1.012000000     6.722000000
H     4.257000000     0.229000000     6.743000000
H     4.952000000     1.178000000     5.791000000
O     3.836000000     2.576000000    -2.181000000
H     3.089000000     2.019000000    -2.399000000
H     4.546000000     2.251000000    -2.735000000
O     5.835000000    -0.661000000     3.699000000
H     5.300000000     0.132000000     3.665000000
H     6.733000000    -0.348000000     3.588000000
O     3.084000000    -3.629000000     1.700000000
H     3.944000000    -3.460000000     2.085000000
H     2.479000000    -3.107000000     2.227000000
