144
-2816.95345
O     0.720000000    -4.264000000    -0.979000000
H     1.572000000    -3.905000000    -1.228000000
H     0.203000000    -4.237000000    -1.785000000
O     5.338000000    -1.327000000    -0.740000000
H     4.434000000    -1.641000000    -0.717000000
H     5.869000000    -2.118000000    -0.644000000
O     2.499000000    -6.275000000     3.276000000
H     2.092000000    -5.410000000     3.319000000
H     2.050000000    -6.785000000     3.950000000
O     3.595000000    -4.288000000    -2.300000000
H     3.431000000    -3.453000000    -1.863000000
H     3.784000000    -4.050000000    -3.208000000
O    -5.920000000     2.261000000     2.729000000
H    -6.683000000     1.810000000     2.370000000
H    -5.493000000     1.607000000     3.283000000
O     1.303000000     2.119000000     3.193000000
H     2.214000000     2.046000000     2.907000000
H     0.797000000     2.112000000     2.381000000
O    -2.082000000    -2.568000000     0.208000000
H    -1.153000000    -2.336000000     0.207000000
H    -2.427000000    -2.171000000     1.008000000
O     3.642000000    -3.952000000    -5.054000000
H     3.241000000    -3.418000000    -5.740000000
H     4.455000000    -4.272000000    -5.444000000
O    -0.455000000    -4.017000000     4.326000000
H    -1.053000000    -4.721000000     4.074000000
H     0.112000000    -3.901000000     3.564000000
O    -7.028000000     0.199000000    -1.082000000
H    -6.998000000     0.134000000    -2.036000000
H    -6.410000000    -0.466000000    -0.777000000
O     3.146000000    -0.959000000     3.847000000
H     3.140000000    -1.629000000     3.164000000
H     3.946000000    -0.459000000     3.686000000
O     2.251000000    -6.936000000    -2.141000000
H     2.601000000    -6.045000000    -2.117000000
H     2.180000000    -7.190000000    -1.221000000
O    -1.810000000    -0.094000000     5.251000000
H    -1.388000000     0.704000000     4.930000000
H    -1.519000000    -0.170000000     6.159000000
O    -0.296000000     5.770000000     0.731000000
H    -0.462000000     4.934000000     0.295000000
H    -0.691000000     5.671000000     1.597000000
O    -0.675000000     3.999000000    -1.343000000
H    -1.456000000     4.010000000    -1.896000000
H     0.042000000     3.801000000    -1.945000000
O    -2.947000000    -3.150000000    -2.189000000
H    -2.711000000    -2.336000000    -2.633000000
H    -2.768000000    -2.980000000    -1.264000000
O     1.631000000    -1.131000000     5.946000000
H     1.487000000    -0.225000000     6.221000000
H     2.107000000    -1.057000000     5.119000000
O    -3.220000000     3.756000000    -3.984000000
H    -2.517000000     3.671000000    -4.628000000
H    -3.071000000     4.609000000    -3.578000000
O    -2.488000000     5.885000000     2.965000000
H    -2.851000000     5.866000000     3.850000000
H    -3.056000000     5.302000000     2.461000000
O     1.476000000    -5.410000000    -4.929000000
H     2.301000000    -4.972000000    -4.720000000
H     0.849000000    -5.050000000    -4.302000000
O     4.136000000     2.178000000     2.767000000
H     4.716000000     1.617000000     3.282000000
H     4.208000000     1.841000000     1.874000000
O     0.432000000     3.457000000     5.521000000
H     0.306000000     4.258000000     5.013000000
H     0.921000000     2.877000000     4.937000000
O    -2.781000000    -0.828000000    -3.238000000
H    -2.097000000    -0.382000000    -3.736000000
H    -3.585000000    -0.359000000    -3.462000000
O     6.067000000    -4.063000000    -0.915000000
H     6.512000000    -4.556000000    -1.605000000
H     5.137000000    -4.239000000    -1.057000000
O     2.134000000     4.514000000     0.139000000
H     2.839000000     4.572000000     0.784000000
H     1.478000000     5.140000000     0.445000000
O    -6.868000000    -2.108000000     1.494000000
H    -7.312000000    -2.955000000     1.503000000
H    -6.073000000    -2.259000000     0.983000000
O     1.168000000    -4.045000000     2.056000000
H     1.875000000    -3.411000000     1.945000000
H     0.808000000    -4.160000000     1.176000000
O     6.573000000    -1.059000000    -3.075000000
H     7.057000000    -0.657000000    -2.354000000
H     5.681000000    -1.156000000    -2.741000000
O     3.884000000     1.362000000    -2.978000000
H     4.744000000     1.783000000    -2.976000000
H     3.426000000     1.749000000    -2.232000000
O     1.612000000     4.298000000    -4.246000000
H     0.756000000     4.514000000    -4.617000000
H     2.067000000     3.835000000    -4.950000000
O     3.634000000    -1.220000000    -3.692000000
H     3.766000000    -0.280000000    -3.565000000
H     3.170000000    -1.505000000    -2.905000000
O    -5.182000000     0.322000000     4.344000000
H    -5.655000000     0.575000000     5.136000000
H    -4.303000000     0.101000000     4.651000000
O    -4.405000000     1.476000000    -4.672000000
H    -3.926000000     2.207000000    -4.282000000
H    -4.685000000     1.803000000    -5.527000000
O     6.695000000    -2.140000000     3.147000000
H     6.426000000    -2.399000000     4.028000000
H     7.613000000    -2.404000000     3.089000000
O     1.672000000     0.786000000    -4.715000000
H     1.995000000     1.523000000    -5.233000000
H     2.264000000     0.743000000    -3.964000000
O     5.135000000     1.024000000     0.223000000
H     4.289000000     1.260000000    -0.158000000
H     5.274000000     0.116000000    -0.048000000
O    -2.751000000     3.038000000     5.249000000
H    -3.067000000     3.921000000     5.056000000
H    -1.810000000     3.144000000     5.385000000
O    -5.788000000     2.619000000    -0.290000000
H    -5.438000000     2.510000000     0.595000000
H    -6.445000000     1.928000000    -0.374000000
O    -4.529000000     4.338000000     1.662000000
H    -4.759000000     3.568000000     2.182000000
H    -5.307000000     4.510000000     1.132000000
O    -2.054000000    -1.906000000     3.214000000
H    -1.303000000    -2.475000000     3.380000000
H    -2.028000000    -1.262000000     3.921000000
O    -4.661000000    -3.117000000     2.737000000
H    -3.895000000    -2.781000000     3.201000000
H    -5.405000000    -2.848000000     3.276000000
O    -4.645000000     5.929000000    -1.564000000
H    -4.672000000     5.075000000    -1.132000000
H    -3.904000000     6.379000000    -1.158000000
O     5.465000000    -6.353000000     2.264000000
H     5.382000000    -6.555000000     3.196000000
H     5.314000000    -5.410000000     2.209000000
O    -0.997000000     0.528000000    -4.780000000
H    -1.528000000     0.792000000    -5.531000000
H    -0.123000000     0.869000000    -4.972000000
O     2.550000000     2.025000000    -0.528000000
H     2.295000000     2.939000000    -0.399000000
H     1.730000000     1.536000000    -0.466000000
O     0.625000000    -1.889000000    -4.584000000
H     1.523000000    -1.640000000    -4.803000000
H     0.132000000    -1.069000000    -4.625000000
O    -0.718000000    -3.992000000    -3.426000000
H    -1.577000000    -3.744000000    -3.083000000
H    -0.458000000    -3.255000000    -3.978000000
O     4.733000000    -3.863000000     2.178000000
H     4.069000000    -3.349000000     1.720000000
H     5.298000000    -3.210000000     2.591000000
