144
-2828.39133
O    -5.731000000    -2.515000000     2.223000000
H    -6.474000000    -2.702000000     2.798000000
H    -5.407000000    -3.378000000     1.963000000
O     3.067000000     4.555000000    -0.180000000
H     2.303000000     4.221000000    -0.650000000
H     3.626000000     4.923000000    -0.865000000
O    -0.289000000    -4.649000000    -2.911000000
H    -1.042000000    -4.079000000    -2.752000000
H     0.321000000    -4.105000000    -3.410000000
O    -0.687000000     6.185000000    -5.126000000
H    -0.516000000     5.789000000    -4.272000000
H     0.131000000     6.629000000    -5.352000000
O    -3.625000000    -6.779000000    -0.013000000
H    -3.791000000    -7.667000000    -0.330000000
H    -2.736000000    -6.814000000     0.341000000
O    -2.066000000     4.512000000     3.254000000
H    -2.139000000     5.166000000     3.949000000
H    -1.718000000     4.996000000     2.504000000
O    -1.023000000    -7.000000000     1.009000000
H    -0.581000000    -7.728000000     0.571000000
H    -0.391000000    -6.694000000     1.660000000
O    -4.178000000    -0.409000000    -2.568000000
H    -3.399000000    -0.966000000    -2.562000000
H    -4.755000000    -0.798000000    -1.911000000
O    -4.455000000     3.353000000     1.836000000
H    -3.949000000     4.152000000     1.688000000
H    -4.128000000     2.737000000     1.180000000
O     4.394000000    -3.405000000     2.006000000
H     4.432000000    -2.494000000     1.714000000
H     4.403000000    -3.916000000     1.197000000
O     2.626000000     5.761000000     2.206000000
H     2.620000000     6.713000000     2.107000000
H     2.641000000     5.427000000     1.310000000
O    -1.502000000    -1.731000000    -3.834000000
H    -1.792000000    -1.806000000    -4.743000000
H    -0.599000000    -2.049000000    -3.844000000
O     0.272000000     5.819000000    -2.807000000
H     0.545000000     6.467000000    -2.158000000
H     0.246000000     4.993000000    -2.324000000
O    -3.960000000     3.000000000    -2.257000000
H    -4.868000000     2.845000000    -2.516000000
H    -3.867000000     2.538000000    -1.423000000
O    -5.289000000    -1.663000000    -0.544000000
H    -6.219000000    -1.444000000    -0.598000000
H    -5.135000000    -1.823000000     0.387000000
O    -3.700000000    -2.612000000     4.678000000
H    -4.465000000    -3.181000000     4.770000000
H    -3.168000000    -3.032000000     4.003000000
O    -4.848000000    -4.870000000     1.220000000
H    -4.473000000    -5.523000000     0.629000000
H    -4.175000000    -4.737000000     1.888000000
O     4.953000000     0.552000000    -0.148000000
H     4.524000000     0.984000000     0.591000000
H     4.734000000     1.098000000    -0.904000000
O     0.166000000     3.151000000     4.389000000
H    -0.396000000     3.530000000     3.713000000
H     0.827000000     2.658000000     3.901000000
O     0.294000000    -6.255000000     3.261000000
H     0.426000000    -5.499000000     3.832000000
H     0.768000000    -6.967000000     3.691000000
O     4.130000000     2.417000000     1.970000000
H     3.308000000     2.270000000     2.438000000
H     3.959000000     3.180000000     1.419000000
O     3.139000000    -5.434000000    -3.452000000
H     2.221000000    -5.635000000    -3.635000000
H     3.133000000    -5.079000000    -2.563000000
O     1.123000000    -5.529000000    -0.766000000
H     0.476000000    -5.854000000    -0.140000000
H     0.615000000    -5.323000000    -1.550000000
O     1.425000000    -2.775000000    -4.162000000
H     1.952000000    -2.085000000    -3.760000000
H     1.700000000    -2.783000000    -5.079000000
O     1.609000000    -0.249000000    -5.495000000
H     1.473000000     0.487000000    -4.897000000
H     1.064000000    -0.044000000    -6.255000000
O    -0.956000000     7.667000000     1.496000000
H    -1.858000000     7.348000000     1.474000000
H    -0.421000000     6.874000000     1.466000000
O    -2.679000000    -4.713000000     2.966000000
H    -1.810000000    -4.956000000     2.646000000
H    -2.999000000    -5.499000000     3.409000000
O    -3.690000000     2.944000000     4.950000000
H    -4.455000000     2.692000000     4.433000000
H    -3.087000000     3.327000000     4.313000000
O     0.267000000    -0.413000000     4.641000000
H    -0.685000000    -0.328000000     4.696000000
H     0.466000000    -1.207000000     5.136000000
O     2.579000000     3.240000000    -6.676000000
H     1.684000000     2.915000000    -6.776000000
H     2.624000000     3.540000000    -5.768000000
O     4.082000000    -0.223000000     3.635000000
H     3.569000000     0.552000000     3.406000000
H     3.480000000    -0.768000000     4.142000000
O    -3.554000000     5.652000000     0.840000000
H    -3.115000000     5.295000000     0.067000000
H    -4.035000000     6.411000000     0.513000000
O     0.751000000     2.188000000    -4.506000000
H    -0.203000000     2.109000000    -4.530000000
H     0.910000000     3.079000000    -4.193000000
O    -2.002000000     1.537000000    -3.786000000
H    -1.838000000     0.785000000    -3.217000000
H    -2.706000000     2.017000000    -3.350000000
O     1.699000000     1.019000000     2.629000000
H     1.003000000     0.689000000     3.198000000
H     1.466000000     0.700000000     1.757000000
O     0.211000000     5.260000000     1.380000000
H     1.148000000     5.303000000     1.572000000
H     0.135000000     4.577000000     0.714000000
O    -3.898000000     1.504000000     0.018000000
H    -4.124000000     1.034000000     0.821000000
H    -3.589000000     0.823000000    -0.579000000
O    -1.956000000     7.880000000    -1.704000000
H    -1.693000000     6.982000000    -1.909000000
H    -1.708000000     8.384000000    -2.479000000
O    -2.194000000     0.694000000     4.155000000
H    -2.533000000     1.469000000     4.602000000
H    -2.946000000     0.344000000     3.678000000
O     2.397000000     4.394000000    -4.289000000
H     2.302000000     5.335000000    -4.144000000
H     2.402000000     4.015000000    -3.410000000
O     3.802000000    -4.627000000    -0.687000000
H     2.947000000    -5.047000000    -0.785000000
H     3.601000000    -3.699000000    -0.569000000
O    -2.223000000     4.961000000    -1.261000000
H    -1.372000000     4.538000000    -1.149000000
H    -2.794000000     4.266000000    -1.589000000
O     4.091000000     2.152000000    -2.261000000
H     3.195000000     2.451000000    -2.105000000
H     4.013000000     1.525000000    -2.981000000
O     4.450000000    -1.918000000    -0.697000000
H     4.693000000    -1.008000000    -0.530000000
H     4.815000000    -2.109000000    -1.561000000
O     0.683000000     8.220000000    -1.148000000
H    -0.041000000     7.919000000    -0.598000000
H     0.296000000     8.899000000    -1.702000000
O    -4.486000000    -0.041000000     2.414000000
H    -4.963000000    -0.848000000     2.220000000
H    -5.131000000     0.522000000     2.841000000
O     0.643000000    -2.869000000     6.706000000
H     0.885000000    -2.355000000     7.477000000
H    -0.314000000    -2.882000000     6.718000000
O     6.239000000     3.612000000    -2.578000000
H     5.554000000     3.068000000    -2.189000000
H     6.507000000     3.135000000    -3.363000000
