144
-2810.33054
O    -0.276000000     0.972000000    -7.883000000
H    -0.537000000     0.383000000    -8.591000000
H    -0.412000000     0.461000000    -7.085000000
O     0.714000000    -1.965000000    -6.259000000
H     1.594000000    -2.015000000    -6.631000000
H     0.856000000    -1.916000000    -5.314000000
O     2.482000000     3.385000000    -1.597000000
H     1.844000000     3.109000000    -0.939000000
H     2.226000000     4.280000000    -1.818000000
O    -2.219000000    -2.711000000    -4.622000000
H    -2.786000000    -3.251000000    -4.072000000
H    -1.414000000    -2.614000000    -4.113000000
O    -4.342000000    -1.431000000     5.234000000
H    -4.352000000    -0.487000000     5.393000000
H    -4.880000000    -1.547000000     4.451000000
O    -0.770000000    -6.640000000    -3.002000000
H    -1.466000000    -7.099000000    -3.471000000
H     0.002000000    -7.194000000    -3.118000000
O    -2.923000000    -1.141000000    -6.818000000
H    -2.784000000    -1.518000000    -5.949000000
H    -3.315000000    -0.284000000    -6.647000000
O     4.415000000    -1.651000000    -6.202000000
H     5.346000000    -1.575000000    -6.412000000
H     4.304000000    -1.124000000    -5.410000000
O    -0.982000000    -2.858000000     2.017000000
H    -0.674000000    -2.231000000     1.363000000
H    -0.940000000    -2.380000000     2.846000000
O     5.200000000     3.718000000     0.650000000
H     4.641000000     3.011000000     0.326000000
H     4.822000000     4.513000000     0.275000000
O     0.077000000    -5.931000000    -5.982000000
H     0.343000000    -5.021000000    -5.856000000
H    -0.878000000    -5.896000000    -6.040000000
O    -3.542000000     1.730000000    -0.727000000
H    -3.679000000     1.862000000     0.211000000
H    -2.675000000     2.097000000    -0.897000000
O    -3.711000000     2.387000000     1.996000000
H    -3.415000000     2.958000000     2.706000000
H    -4.630000000     2.213000000     2.197000000
O    -1.548000000     3.462000000     0.312000000
H    -0.691000000     3.700000000     0.667000000
H    -2.028000000     3.111000000     1.062000000
O    -3.700000000     0.626000000    -4.793000000
H    -4.019000000     0.245000000    -3.975000000
H    -2.753000000     0.692000000    -4.674000000
O    -2.530000000    -5.236000000    -6.168000000
H    -2.371000000    -4.302000000    -6.034000000
H    -2.909000000    -5.536000000    -5.342000000
O    -4.432000000    -5.746000000    -0.721000000
H    -4.109000000    -6.370000000    -0.071000000
H    -4.396000000    -4.898000000    -0.278000000
O     1.280000000     3.871000000     0.777000000
H     1.778000000     4.631000000     0.475000000
H     1.285000000     3.946000000     1.732000000
O     5.698000000     1.696000000    -3.992000000
H     5.246000000     0.867000000    -3.838000000
H     6.400000000     1.710000000    -3.342000000
O     3.783000000    -0.184000000     2.657000000
H     3.630000000    -0.802000000     3.372000000
H     2.947000000     0.270000000     2.551000000
O     3.082000000    -4.010000000    -5.827000000
H     2.747000000    -4.027000000    -4.930000000
H     3.845000000    -3.433000000    -5.786000000
O    -5.015000000    -3.227000000     0.295000000
H    -5.432000000    -2.758000000    -0.428000000
H    -4.967000000    -2.584000000     1.002000000
O     2.350000000     1.906000000    -4.122000000
H     1.829000000     1.436000000    -3.472000000
H     2.739000000     2.633000000    -3.636000000
O     1.255000000     4.909000000     3.658000000
H     2.081000000     5.035000000     4.124000000
H     1.130000000     5.721000000     3.167000000
O     3.901000000    -0.592000000    -3.444000000
H     2.944000000    -0.583000000    -3.407000000
H     4.164000000    -1.166000000    -2.725000000
O    -5.211000000    -1.359000000     2.479000000
H    -4.874000000    -0.464000000     2.429000000
H    -6.162000000    -1.256000000     2.502000000
O    -1.665000000     4.869000000    -1.962000000
H    -1.401000000     4.375000000    -1.186000000
H    -2.574000000     5.116000000    -1.792000000
O     1.691000000    -4.265000000    -3.602000000
H     1.087000000    -3.584000000    -3.307000000
H     1.543000000    -4.994000000    -3.001000000
O    -3.954000000    -4.346000000    -3.225000000
H    -4.786000000    -3.874000000    -3.198000000
H    -4.036000000    -5.014000000    -2.543000000
O    -1.100000000    -1.545000000     4.332000000
H    -1.911000000    -1.719000000     4.809000000
H    -0.875000000    -0.644000000     4.563000000
O     3.264000000     1.677000000    -6.654000000
H     4.053000000     2.176000000    -6.442000000
H     2.891000000     1.444000000    -5.804000000
O     1.092000000    -4.651000000     1.128000000
H     0.802000000    -4.596000000     0.218000000
H     0.445000000    -4.142000000     1.617000000
O    -1.098000000     3.046000000     6.038000000
H    -1.355000000     3.095000000     6.959000000
H    -0.141000000     3.027000000     6.058000000
O    -0.625000000     0.886000000    -5.049000000
H    -0.019000000     0.261000000    -4.650000000
H    -0.437000000     1.716000000    -4.611000000
O     3.441000000    -2.428000000     4.156000000
H     2.808000000    -2.859000000     3.583000000
H     3.014000000    -2.407000000     5.012000000
O     6.279000000     0.905000000     2.919000000
H     5.369000000     0.639000000     2.782000000
H     6.320000000     1.800000000     2.582000000
O     0.057000000     0.253000000     6.293000000
H     0.060000000     0.778000000     7.093000000
H     0.682000000     0.693000000     5.716000000
O    -0.493000000     3.332000000    -3.906000000
H    -0.566000000     4.158000000    -4.384000000
H    -1.017000000     3.465000000    -3.116000000
O    -3.211000000    -4.640000000     2.349000000
H    -3.825000000    -4.313000000     1.692000000
H    -2.466000000    -4.041000000     2.299000000
O    -0.309000000    -4.287000000    -1.240000000
H    -0.252000000    -3.383000000    -1.549000000
H    -0.536000000    -4.793000000    -2.020000000
O     4.082000000    -1.479000000    -0.641000000
H     3.753000000    -2.340000000    -0.383000000
H     3.963000000    -0.934000000     0.136000000
O    -3.116000000     1.222000000     5.379000000
H    -3.686000000     1.723000000     4.795000000
H    -2.305000000     1.730000000     5.416000000
O     2.667000000    -0.766000000    -8.101000000
H     2.383000000     0.058000000    -7.706000000
H     3.368000000    -1.078000000    -7.528000000
O     1.846000000    -1.882000000     6.376000000
H     1.690000000    -1.896000000     7.321000000
H     1.151000000    -1.325000000     6.027000000
O    -0.711000000    -1.967000000    -8.561000000
H    -1.635000000    -2.084000000    -8.340000000
H    -0.289000000    -1.757000000    -7.728000000
O    -2.655000000     4.366000000     3.921000000
H    -2.377000000     4.061000000     4.785000000
H    -2.045000000     5.072000000     3.709000000
O     2.149000000     1.560000000     4.588000000
H     1.683000000     2.392000000     4.672000000
H     3.006000000     1.724000000     4.982000000
O    -4.640000000    -0.095000000    -2.284000000
H    -4.181000000     0.630000000    -1.860000000
H    -5.360000000    -0.303000000    -1.688000000
