144
-2805.58428
O    -0.723000000     0.672000000    -6.730000000
H    -0.308000000     0.929000000    -5.907000000
H    -0.250000000    -0.114000000    -7.002000000
O     3.327000000    -2.666000000    -4.174000000
H     4.129000000    -2.761000000    -3.660000000
H     2.857000000    -1.946000000    -3.754000000
O     1.063000000    -1.543000000    -6.165000000
H     1.029000000    -1.537000000    -5.209000000
H     1.605000000    -0.786000000    -6.390000000
O    -6.528000000     1.601000000     2.746000000
H    -5.896000000     1.209000000     3.349000000
H    -7.152000000     2.053000000     3.315000000
O    -2.000000000    -3.599000000     0.600000000
H    -1.077000000    -3.391000000     0.453000000
H    -2.468000000    -2.805000000     0.344000000
O     4.025000000     2.754000000    -2.212000000
H     4.549000000     1.956000000    -2.138000000
H     3.360000000     2.543000000    -2.867000000
O     1.648000000     5.711000000     0.858000000
H     1.387000000     5.188000000     1.617000000
H     2.516000000     6.045000000     1.085000000
O    -5.739000000     2.119000000     0.208000000
H    -6.641000000     1.866000000     0.011000000
H    -5.633000000     1.923000000     1.139000000
O    -1.159000000     3.388000000    -0.735000000
H    -1.243000000     3.598000000     0.195000000
H    -0.731000000     2.532000000    -0.750000000
O    -3.407000000    -3.739000000    -5.046000000
H    -4.016000000    -3.526000000    -4.339000000
H    -2.945000000    -2.919000000    -5.220000000
O     2.183000000    -5.211000000    -1.543000000
H     2.612000000    -4.417000000    -1.224000000
H     1.305000000    -4.925000000    -1.793000000
O    -4.399000000     0.453000000     3.886000000
H    -4.255000000     0.388000000     4.830000000
H    -3.890000000     1.218000000     3.618000000
O    -0.026000000    -3.903000000    -6.513000000
H    -0.314000000    -3.720000000    -7.407000000
H     0.369000000    -3.083000000    -6.216000000
O    -4.114000000    -4.994000000    -1.773000000
H    -4.837000000    -4.721000000    -2.338000000
H    -3.725000000    -4.174000000    -1.469000000
O    -1.793000000    -2.550000000     7.029000000
H    -2.613000000    -2.072000000     7.154000000
H    -1.245000000    -1.955000000     6.517000000
O    -0.733000000     4.774000000     4.591000000
H    -0.671000000     5.311000000     5.381000000
H    -0.415000000     3.913000000     4.860000000
O     3.472000000     1.032000000    -4.494000000
H     4.271000000     0.759000000    -4.043000000
H     2.834000000     0.350000000    -4.284000000
O     2.518000000    -4.800000000    -5.519000000
H     1.627000000    -4.651000000    -5.835000000
H     2.790000000    -3.954000000    -5.163000000
O    -5.117000000    -1.798000000     2.530000000
H    -4.855000000    -1.020000000     3.022000000
H    -6.029000000    -1.944000000     2.782000000
O     0.160000000     1.546000000    -4.505000000
H     0.834000000     1.001000000    -4.097000000
H     0.501000000     2.438000000    -4.438000000
O    -1.285000000     4.524000000     1.906000000
H    -0.949000000     4.632000000     2.796000000
H    -1.112000000     5.364000000     1.482000000
O     3.486000000    -2.987000000    -0.648000000
H     4.102000000    -3.200000000     0.053000000
H     3.150000000    -2.121000000    -0.418000000
O    -0.358000000    -4.301000000    -2.527000000
H    -0.191000000    -3.420000000    -2.861000000
H    -0.715000000    -4.778000000    -3.277000000
O    -1.331000000    -5.752000000    -4.623000000
H    -2.136000000    -5.243000000    -4.719000000
H    -0.775000000    -5.460000000    -5.345000000
O    -0.299000000    -0.606000000     5.753000000
H     0.540000000    -0.194000000     5.545000000
H    -0.943000000     0.094000000     5.641000000
O     4.035000000    -1.485000000    -6.504000000
H     4.974000000    -1.637000000    -6.395000000
H     3.658000000    -1.692000000    -5.649000000
O    -1.310000000    -4.941000000     2.827000000
H    -1.531000000    -4.463000000     2.028000000
H    -0.353000000    -4.941000000     2.848000000
O     0.986000000     4.666000000    -1.809000000
H     0.077000000     4.446000000    -1.608000000
H     1.323000000     5.055000000    -1.002000000
O    -0.821000000    -6.087000000    -0.207000000
H    -1.160000000    -5.481000000     0.453000000
H    -0.316000000    -5.534000000    -0.803000000
O    -1.974000000    -1.511000000    -5.289000000
H    -1.205000000    -1.486000000    -4.720000000
H    -2.247000000    -0.597000000    -5.363000000
O    -0.406000000     2.984000000     7.242000000
H    -0.450000000     3.900000000     7.514000000
H     0.391000000     2.928000000     6.714000000
O     0.954000000    -3.457000000     1.032000000
H     1.399000000    -4.247000000     1.338000000
H     1.650000000    -2.805000000     0.954000000
O     2.643000000     3.971000000     3.584000000
H     3.511000000     3.819000000     3.958000000
H     2.364000000     3.111000000     3.270000000
O    -3.626000000    -0.492000000     6.890000000
H    -3.217000000     0.283000000     6.505000000
H    -4.557000000    -0.274000000     6.934000000
O    -2.440000000     1.671000000    -3.694000000
H    -1.573000000     1.282000000    -3.813000000
H    -2.265000000     2.590000000    -3.495000000
O    -5.617000000    -4.584000000     0.676000000
H    -5.216000000    -5.432000000     0.484000000
H    -5.023000000    -3.944000000     0.283000000
O    -4.290000000    -2.402000000    -0.211000000
H    -4.126000000    -1.533000000    -0.577000000
H    -4.602000000    -2.232000000     0.678000000
O     2.969000000    -0.944000000     1.101000000
H     3.235000000    -0.390000000     1.836000000
H     2.368000000    -0.397000000     0.594000000
O    -2.294000000     1.587000000     5.789000000
H    -1.805000000     2.172000000     6.367000000
H    -2.780000000     2.174000000     5.210000000
O     5.866000000     0.525000000    -2.727000000
H     6.346000000     1.318000000    -2.966000000
H     6.513000000    -0.023000000    -2.284000000
O    -5.224000000    -2.519000000    -3.245000000
H    -6.179000000    -2.459000000    -3.225000000
H    -4.925000000    -1.773000000    -2.726000000
O     2.663000000     0.727000000    -7.327000000
H     3.070000000     1.225000000    -6.618000000
H     3.063000000    -0.141000000    -7.270000000
O     5.449000000    -2.790000000    -2.436000000
H     4.767000000    -2.964000000    -1.788000000
H     6.119000000    -3.451000000    -2.262000000
O    -3.367000000     3.180000000     3.807000000
H    -2.883000000     3.545000000     3.066000000
H    -4.082000000     3.799000000     3.954000000
O     3.849000000     1.758000000     1.914000000
H     4.494000000     1.867000000     1.215000000
H     4.371000000     1.679000000     2.712000000
O     1.991000000     3.698000000     6.156000000
H     2.317000000     3.840000000     5.267000000
H     2.295000000     4.462000000     6.647000000
O     1.891000000     0.864000000     5.516000000
H     2.398000000     1.673000000     5.579000000
H     2.262000000     0.296000000     6.191000000
O    -3.946000000     0.197000000    -1.532000000
H    -4.332000000     0.918000000    -1.036000000
H    -3.624000000     0.605000000    -2.337000000
