144
-2808.44063
O    -4.865000000    -3.965000000     3.197000000
H    -4.490000000    -3.507000000     3.950000000
H    -5.742000000    -4.218000000     3.484000000
O     2.071000000     0.499000000    -5.525000000
H     1.445000000     0.780000000    -4.857000000
H     2.833000000     1.062000000    -5.390000000
O    -1.309000000     3.405000000    -6.579000000
H    -0.675000000     3.658000000    -5.908000000
H    -1.663000000     2.571000000    -6.272000000
O     4.125000000    -0.591000000     5.607000000
H     4.378000000     0.303000000     5.374000000
H     3.169000000    -0.581000000     5.588000000
O     5.002000000     4.757000000    -4.438000000
H     4.123000000     4.413000000    -4.281000000
H     5.229000000     5.214000000    -3.628000000
O     2.251000000    -4.527000000     4.501000000
H     3.199000000    -4.413000000     4.431000000
H     2.083000000    -5.381000000     4.103000000
O    -0.661000000    -5.898000000     4.833000000
H    -1.087000000    -6.292000000     5.594000000
H    -1.369000000    -5.765000000     4.203000000
O     2.121000000     5.368000000    -7.186000000
H     1.582000000     5.435000000    -7.975000000
H     1.536000000     4.995000000    -6.527000000
O    -1.302000000     5.475000000     3.392000000
H    -1.386000000     5.271000000     4.324000000
H    -0.836000000     4.725000000     3.024000000
O    -1.772000000    -5.463000000    -0.413000000
H    -2.536000000    -5.909000000    -0.780000000
H    -1.093000000    -5.562000000    -1.080000000
O    -4.127000000     0.423000000    -3.858000000
H    -3.881000000     0.245000000    -2.950000000
H    -4.603000000     1.253000000    -3.820000000
O    -3.839000000    -0.041000000     5.269000000
H    -3.784000000     0.726000000     5.839000000
H    -4.699000000     0.029000000     4.856000000
O    -1.537000000     0.544000000    -7.980000000
H    -1.702000000     0.799000000    -7.072000000
H    -0.628000000     0.242000000    -7.982000000
O     0.821000000    -6.364000000     1.260000000
H     0.733000000    -7.315000000     1.200000000
H     0.112000000    -6.023000000     0.714000000
O    -3.463000000    -2.967000000    -1.622000000
H    -3.318000000    -3.150000000    -0.694000000
H    -2.622000000    -3.158000000    -2.038000000
O    -1.145000000    -0.265000000     5.594000000
H    -1.939000000     0.047000000     5.160000000
H    -1.179000000     0.125000000     6.467000000
O     2.234000000     2.708000000     3.883000000
H     2.169000000     3.646000000     4.064000000
H     3.173000000     2.524000000     3.904000000
O    -3.982000000    -2.007000000    -5.237000000
H    -3.264000000    -2.391000000    -4.734000000
H    -4.204000000    -1.205000000    -4.765000000
O     3.269000000     3.045000000    -2.566000000
H     2.924000000     3.756000000    -2.027000000
H     2.492000000     2.628000000    -2.939000000
O     3.752000000    -0.755000000     0.774000000
H     2.987000000    -0.583000000     1.323000000
H     4.083000000    -1.599000000     1.083000000
O     1.466000000    -1.174000000    -7.679000000
H     1.827000000    -0.631000000    -6.978000000
H     2.076000000    -1.060000000    -8.408000000
O     0.670000000     4.129000000    -4.767000000
H     0.589000000     4.943000000    -4.270000000
H     0.751000000     3.448000000    -4.099000000
O     4.424000000     2.105000000     1.344000000
H     4.339000000     2.091000000     2.297000000
H     4.429000000     1.182000000     1.090000000
O     3.915000000    -1.854000000    -4.514000000
H     4.248000000    -1.789000000    -3.619000000
H     3.455000000    -1.028000000    -4.660000000
O    -3.829000000     2.526000000    -1.322000000
H    -3.310000000     2.693000000    -0.535000000
H    -4.164000000     3.387000000    -1.575000000
O    -1.554000000    -3.994000000    -3.162000000
H    -0.903000000    -3.327000000    -3.377000000
H    -1.070000000    -4.819000000    -3.187000000
O     0.464000000     3.740000000     1.977000000
H     1.135000000     4.286000000     1.567000000
H     0.956000000     3.069000000     2.449000000
O    -1.427000000    -3.030000000     5.523000000
H    -1.461000000    -2.085000000     5.374000000
H    -0.832000000    -3.358000000     4.849000000
O     4.320000000     2.093000000    -5.298000000
H     4.539000000     3.025000000    -5.292000000
H     4.671000000     1.760000000    -4.472000000
O     1.680000000    -2.780000000    -1.595000000
H     1.299000000    -2.398000000    -0.804000000
H     1.294000000    -2.280000000    -2.313000000
O     3.343000000    -5.359000000     0.915000000
H     2.494000000    -5.793000000     1.001000000
H     3.214000000    -4.500000000     1.318000000
O     0.479000000    -2.263000000    -4.134000000
H     1.205000000    -2.480000000    -4.718000000
H     0.473000000    -1.306000000    -4.105000000
O    -6.187000000    -1.848000000    -1.422000000
H    -6.201000000    -0.898000000    -1.540000000
H    -5.272000000    -2.093000000    -1.558000000
O     0.486000000    -3.736000000    -6.978000000
H     0.656000000    -2.798000000    -6.890000000
H    -0.459000000    -3.796000000    -7.119000000
O     6.136000000     3.917000000     0.142000000
H     6.357000000     4.418000000     0.927000000
H     5.759000000     3.103000000     0.476000000
O    -0.633000000     4.562000000    -1.634000000
H    -0.066000000     3.892000000    -2.016000000
H    -0.110000000     5.363000000    -1.664000000
O    -1.028000000     4.171000000     5.732000000
H    -1.525000000     3.356000000     5.808000000
H    -0.278000000     4.050000000     6.314000000
O    -1.767000000     0.926000000    -5.415000000
H    -1.159000000     0.707000000    -4.710000000
H    -2.597000000     0.530000000    -5.148000000
O    -2.494000000    -5.259000000     2.356000000
H    -2.306000000    -4.987000000     1.457000000
H    -3.376000000    -4.926000000     2.527000000
O    -3.722000000    -2.464000000     1.002000000
H    -3.392000000    -1.726000000     1.515000000
H    -4.331000000    -2.911000000     1.590000000
O     4.817000000     2.156000000     4.248000000
H     4.554000000     2.189000000     5.168000000
H     5.541000000     2.780000000     4.184000000
O     4.628000000    -3.105000000     1.937000000
H     5.277000000    -3.560000000     1.401000000
H     5.064000000    -2.967000000     2.777000000
O     1.787000000     0.345000000     5.339000000
H     1.606000000     1.075000000     4.747000000
H     0.953000000    -0.120000000     5.409000000
O     2.430000000     5.240000000    -1.425000000
H     3.235000000     5.739000000    -1.564000000
H     2.276000000     5.293000000    -0.482000000
O     4.775000000    -1.712000000    -1.983000000
H     3.992000000    -1.969000000    -1.497000000
H     5.375000000    -2.451000000    -1.880000000
O    -1.844000000     3.312000000     0.507000000
H    -1.489000000     3.698000000    -0.294000000
H    -1.209000000     3.540000000     1.185000000
O     3.075000000     4.530000000     1.232000000
H     3.597000000     3.729000000     1.279000000
H     3.667000000     5.219000000     1.534000000
O     5.055000000     0.979000000    -2.429000000
H     4.437000000     1.710000000    -2.433000000
H     4.649000000     0.325000000    -1.861000000
