144
-2822.91291
O    -4.334000000     4.627000000    -0.228000000
H    -5.011000000     4.474000000     0.431000000
H    -4.258000000     5.580000000    -0.277000000
O    -6.717000000    -1.298000000     0.788000000
H    -7.669000000    -1.222000000     0.720000000
H    -6.472000000    -0.651000000     1.449000000
O     4.803000000    -3.908000000    -1.378000000
H     3.981000000    -3.494000000    -1.117000000
H     5.382000000    -3.786000000    -0.625000000
O    -6.406000000    -0.032000000    -2.197000000
H    -6.518000000    -0.422000000    -1.330000000
H    -6.113000000     0.862000000    -2.021000000
O    -2.570000000    -4.489000000     1.828000000
H    -1.914000000    -4.914000000     2.380000000
H    -2.864000000    -5.178000000     1.232000000
O    -1.051000000     5.378000000    -1.590000000
H    -0.730000000     4.668000000    -2.145000000
H    -0.291000000     5.946000000    -1.465000000
O     3.445000000    -3.975000000     1.775000000
H     3.063000000    -3.559000000     1.002000000
H     4.356000000    -4.138000000     1.533000000
O    -6.351000000     0.704000000     2.692000000
H    -5.737000000     1.416000000     2.513000000
H    -5.986000000     0.260000000     3.458000000
O     4.108000000     0.435000000    -2.747000000
H     4.949000000     0.078000000    -2.463000000
H     3.517000000    -0.318000000    -2.753000000
O     3.564000000    -0.980000000     2.970000000
H     3.828000000    -1.201000000     2.077000000
H     3.518000000    -0.024000000     2.977000000
O     6.322000000    -4.058000000     1.151000000
H     6.655000000    -4.163000000     2.043000000
H     6.535000000    -3.154000000     0.921000000
O     4.020000000    -6.589000000     2.548000000
H     3.660000000    -5.773000000     2.201000000
H     4.132000000    -7.148000000     1.779000000
O     4.131000000    -2.181000000    -5.334000000
H     4.787000000    -2.501000000    -4.714000000
H     3.292000000    -2.420000000    -4.940000000
O     5.925000000     4.020000000     1.446000000
H     6.035000000     4.335000000     2.343000000
H     5.527000000     3.155000000     1.544000000
O    -1.496000000    -4.594000000    -1.779000000
H    -2.368000000    -4.974000000    -1.670000000
H    -1.658000000    -3.726000000    -2.149000000
O     4.032000000     3.117000000    -2.917000000
H     4.049000000     3.226000000    -3.868000000
H     4.076000000     2.170000000    -2.785000000
O     1.264000000    -0.440000000    -3.223000000
H     1.510000000    -1.327000000    -3.484000000
H     0.799000000    -0.555000000    -2.394000000
O    -5.122000000     2.625000000    -2.026000000
H    -4.634000000     2.613000000    -2.849000000
H    -4.773000000     3.380000000    -1.552000000
O    -3.085000000    -2.439000000    -2.910000000
H    -3.384000000    -1.683000000    -3.415000000
H    -3.654000000    -2.453000000    -2.141000000
O     7.302000000     0.457000000     1.701000000
H     6.984000000    -0.418000000     1.478000000
H     8.197000000     0.480000000     1.363000000
O     5.068000000     1.399000000     0.112000000
H     4.477000000     0.646000000     0.095000000
H     5.829000000     1.095000000     0.607000000
O     4.027000000    -2.969000000     5.023000000
H     4.016000000    -2.301000000     4.337000000
H     3.178000000    -3.404000000     4.947000000
O    -1.029000000    -1.074000000     2.674000000
H    -1.982000000    -1.083000000     2.765000000
H    -0.879000000    -0.848000000     1.756000000
O     0.208000000    -4.711000000    -3.759000000
H     0.618000000    -5.575000000    -3.734000000
H    -0.267000000    -4.647000000    -2.930000000
O    -3.595000000    -1.967000000     1.753000000
H    -3.764000000    -1.893000000     0.813000000
H    -3.389000000    -2.892000000     1.887000000
O     1.507000000     5.478000000     0.722000000
H     1.784000000     4.616000000     0.413000000
H     2.049000000     5.641000000     1.494000000
O     6.028000000    -3.110000000    -3.506000000
H     6.693000000    -3.740000000    -3.784000000
H     5.745000000    -3.424000000    -2.647000000
O     0.109000000     0.403000000     4.686000000
H    -0.493000000    -0.034000000     4.083000000
H    -0.060000000     1.337000000     4.559000000
O    -5.038000000     2.770000000     1.800000000
H    -5.894000000     3.194000000     1.730000000
H    -4.744000000     2.675000000     0.894000000
O     0.077000000     3.349000000    -3.193000000
H    -0.279000000     2.475000000    -3.351000000
H     0.950000000     3.191000000    -2.834000000
O    -5.083000000    -1.800000000     3.977000000
H    -4.766000000    -1.775000000     3.074000000
H    -4.374000000    -1.413000000     4.491000000
O     0.915000000    -5.557000000    -0.339000000
H     1.601000000    -4.893000000    -0.415000000
H     0.176000000    -5.194000000    -0.827000000
O     2.273000000     3.351000000    -0.920000000
H     2.695000000     2.610000000    -0.486000000
H     2.961000000     3.733000000    -1.465000000
O    -0.954000000     5.454000000     3.986000000
H    -1.495000000     6.241000000     3.922000000
H    -0.760000000     5.222000000     3.078000000
O     2.101000000    -2.943000000    -3.685000000
H     2.401000000    -3.028000000    -2.780000000
H     1.474000000    -3.657000000    -3.797000000
O    -3.262000000    -4.035000000    -5.169000000
H    -3.072000000    -3.404000000    -4.473000000
H    -4.004000000    -4.540000000    -4.838000000
O    -1.204000000     0.802000000    -3.969000000
H    -1.579000000     0.297000000    -4.690000000
H    -0.510000000     0.242000000    -3.620000000
O     6.331000000    -1.837000000    -0.261000000
H     5.384000000    -1.706000000    -0.215000000
H     6.606000000    -1.334000000    -1.027000000
O     0.418000000    -6.630000000     2.397000000
H     0.731000000    -6.374000000     1.529000000
H    -0.527000000    -6.739000000     2.288000000
O    -4.872000000    -2.735000000    -0.669000000
H    -5.098000000    -3.664000000    -0.640000000
H    -5.556000000    -2.305000000    -0.155000000
O     3.719000000    -6.494000000    -1.977000000
H     3.944000000    -7.007000000    -1.202000000
H     3.858000000    -5.585000000    -1.711000000
O    -4.309000000     3.268000000     4.766000000
H    -5.203000000     3.513000000     5.005000000
H    -4.376000000     2.974000000     3.858000000
O     1.635000000     3.866000000     3.301000000
H     1.206000000     3.963000000     4.152000000
H     2.515000000     4.218000000     3.436000000
O     6.736000000    -0.603000000    -2.543000000
H     7.587000000    -0.186000000    -2.675000000
H     6.856000000    -1.498000000    -2.861000000
O     1.767000000    -4.343000000     3.819000000
H     1.267000000    -5.111000000     3.541000000
H     2.435000000    -4.235000000     3.142000000
O     2.509000000     1.275000000     3.685000000
H     2.093000000     2.115000000     3.491000000
H     1.794000000     0.719000000     3.994000000
O    -3.398000000     2.281000000    -4.121000000
H    -2.616000000     1.929000000    -3.696000000
H    -3.189000000     2.267000000    -5.055000000
O    -1.226000000     5.424000000     1.181000000
H    -0.306000000     5.367000000     0.923000000
H    -1.713000000     5.254000000     0.375000000
