144
-2822.26518
O     0.560000000    -5.545000000     0.862000000
H     1.056000000    -4.862000000     1.312000000
H    -0.356000000    -5.311000000     1.007000000
O     3.668000000     1.800000000    -6.358000000
H     4.232000000     1.052000000    -6.163000000
H     3.063000000     1.844000000    -5.617000000
O    -1.533000000     1.489000000     2.422000000
H    -1.003000000     0.900000000     1.884000000
H    -2.250000000     1.757000000     1.847000000
O    -3.602000000     2.953000000    -3.099000000
H    -4.253000000     2.260000000    -3.214000000
H    -3.914000000     3.669000000    -3.652000000
O     4.562000000    -0.935000000     0.872000000
H     4.789000000    -0.308000000     0.185000000
H     4.212000000    -0.397000000     1.582000000
O    -4.250000000    -1.964000000     2.007000000
H    -3.320000000    -1.939000000     2.231000000
H    -4.637000000    -2.553000000     2.654000000
O     2.383000000     1.976000000    -3.807000000
H     3.075000000     2.415000000    -3.312000000
H     2.451000000     1.057000000    -3.549000000
O    -0.503000000    -7.213000000    -2.363000000
H    -1.392000000    -7.478000000    -2.126000000
H     0.048000000    -7.945000000    -2.085000000
O    -6.200000000    -1.811000000    -0.048000000
H    -5.798000000    -2.066000000    -0.879000000
H    -5.486000000    -1.859000000     0.588000000
O    -3.453000000    -7.731000000     0.017000000
H    -2.678000000    -7.911000000     0.549000000
H    -4.191000000    -7.948000000     0.587000000
O    -5.072000000    -2.483000000    -2.410000000
H    -5.596000000    -2.991000000    -3.029000000
H    -4.320000000    -2.184000000    -2.921000000
O     4.767000000     2.841000000    -2.282000000
H     5.133000000     3.680000000    -2.562000000
H     4.410000000     3.014000000    -1.411000000
O     3.210000000    -3.799000000     6.363000000
H     3.535000000    -4.650000000     6.069000000
H     2.757000000    -3.439000000     5.601000000
O    -1.473000000     4.116000000     3.463000000
H    -1.320000000     3.206000000     3.210000000
H    -0.846000000     4.278000000     4.168000000
O     3.266000000    -3.184000000    -0.011000000
H     3.445000000    -2.294000000     0.293000000
H     3.326000000    -3.723000000     0.777000000
O     2.329000000    -0.796000000    -2.984000000
H     1.786000000    -0.544000000    -2.237000000
H     2.095000000    -1.709000000    -3.154000000
O     4.040000000     0.181000000     3.643000000
H     4.553000000    -0.433000000     4.168000000
H     3.396000000     0.538000000     4.255000000
O     5.435000000     2.428000000     2.855000000
H     5.578000000     3.085000000     3.537000000
H     4.904000000     1.754000000     3.281000000
O    -2.432000000     1.000000000     5.193000000
H    -2.874000000     0.157000000     5.294000000
H    -2.050000000     0.966000000     4.316000000
O    -0.702000000    -7.936000000     0.825000000
H    -0.040000000    -8.598000000     0.627000000
H    -0.240000000    -7.102000000     0.735000000
O    -2.201000000    -3.841000000    -4.584000000
H    -1.716000000    -4.175000000    -3.829000000
H    -2.453000000    -2.953000000    -4.333000000
O     0.884000000    -6.873000000     5.437000000
H     0.483000000    -6.627000000     4.604000000
H     0.636000000    -6.171000000     6.039000000
O     0.264000000     7.501000000     0.772000000
H     0.035000000     7.178000000     1.644000000
H    -0.171000000     6.896000000     0.171000000
O    -3.607000000    -4.334000000    -0.457000000
H    -3.782000000    -3.968000000    -1.324000000
H    -2.798000000    -3.906000000    -0.175000000
O     0.025000000    -1.459000000    -6.115000000
H     0.125000000    -0.715000000    -5.521000000
H     0.171000000    -2.228000000    -5.564000000
O     1.121000000    -3.211000000    -3.689000000
H     0.594000000    -3.546000000    -2.964000000
H     1.111000000    -3.915000000    -4.337000000
O     3.203000000     5.187000000     2.909000000
H     3.961000000     5.030000000     3.473000000
H     3.055000000     6.131000000     2.964000000
O     3.054000000    -6.017000000    -0.294000000
H     3.462000000    -5.162000000    -0.430000000
H     2.198000000    -5.816000000     0.084000000
O     1.638000000     6.591000000    -2.496000000
H     2.255000000     6.397000000    -1.791000000
H     1.638000000     7.547000000    -2.558000000
O    -1.494000000     1.154000000    -4.504000000
H    -2.138000000     1.804000000    -4.223000000
H    -0.678000000     1.647000000    -4.590000000
O    -0.369000000     5.821000000    -4.358000000
H     0.341000000     6.060000000    -3.763000000
H    -0.198000000     4.905000000    -4.578000000
O    -3.673000000    -6.528000000    -2.503000000
H    -3.742000000    -5.592000000    -2.692000000
H    -3.757000000    -6.586000000    -1.551000000
O     1.515000000    -3.114000000     4.223000000
H     0.960000000    -2.555000000     4.767000000
H     1.041000000    -3.189000000     3.394000000
O     4.309000000     3.373000000     0.359000000
H     3.933000000     4.176000000     0.720000000
H     4.480000000     2.824000000     1.124000000
O    -2.028000000    -2.818000000     3.462000000
H    -1.240000000    -3.025000000     2.959000000
H    -1.698000000    -2.462000000     4.287000000
O     0.376000000     3.220000000    -4.980000000
H     0.918000000     2.987000000    -4.227000000
H     0.999000000     3.329000000    -5.699000000
O     1.244000000     4.020000000     4.764000000
H     0.917000000     4.757000000     5.280000000
H     1.817000000     4.421000000     4.111000000
O    -1.635000000     5.613000000    -0.991000000
H    -2.471000000     5.729000000    -1.441000000
H    -0.986000000     5.588000000    -1.695000000
O    -3.335000000     2.484000000     0.524000000
H    -3.521000000     1.817000000    -0.136000000
H    -3.181000000     3.283000000     0.020000000
O     6.238000000    -2.795000000     1.481000000
H     5.604000000    -3.468000000     1.728000000
H     5.703000000    -2.049000000     1.212000000
O    -0.785000000    -4.375000000    -2.102000000
H    -0.615000000    -5.315000000    -2.165000000
H    -0.883000000    -4.211000000    -1.164000000
O     2.121000000     1.638000000     5.247000000
H     1.651000000     2.425000000     4.972000000
H     2.416000000     1.833000000     6.137000000
O     0.121000000    -0.757000000     5.011000000
H    -0.702000000    -0.478000000     5.411000000
H     0.727000000    -0.036000000     5.181000000
O    -3.319000000    -5.172000000     2.295000000
H    -3.342000000    -5.002000000     1.353000000
H    -2.885000000    -4.404000000     2.666000000
O    -6.121000000    -5.300000000     0.324000000
H    -5.265000000    -4.939000000     0.095000000
H    -5.921000000    -6.093000000     0.822000000
O    -2.534000000     5.763000000     1.570000000
H    -2.136000000     5.616000000     0.712000000
H    -2.147000000     5.091000000     2.131000000
O    -2.945000000    -1.283000000    -4.121000000
H    -3.770000000    -1.139000000    -4.584000000
H    -2.378000000    -0.570000000    -4.416000000
O     3.340000000    -4.456000000     2.349000000
H     3.467000000    -5.232000000     2.894000000
H     2.890000000    -3.833000000     2.920000000
