144
-2766.99830
O    -5.273000000     2.788000000     2.563000000
H    -5.662000000     1.923000000     2.433000000
H    -4.517000000     2.801000000     1.976000000
O     3.441000000     2.059000000    -5.982000000
H     3.467000000     2.133000000    -6.936000000
H     2.535000000     2.261000000    -5.751000000
O     4.750000000     2.063000000    -1.998000000
H     4.927000000     1.287000000    -2.530000000
H     4.342000000     2.681000000    -2.604000000
O    -3.368000000    -1.872000000     3.973000000
H    -2.666000000    -2.235000000     3.434000000
H    -3.606000000    -2.583000000     4.568000000
O    -2.703000000     2.697000000     2.012000000
H    -2.509000000     2.992000000     1.123000000
H    -1.956000000     2.149000000     2.251000000
O     5.290000000     2.842000000     2.861000000
H     4.739000000     2.061000000     2.916000000
H     5.063000000     3.236000000     2.019000000
O    -1.440000000    -1.032000000     6.262000000
H    -0.896000000    -1.693000000     5.832000000
H    -0.819000000    -0.367000000     6.560000000
O     0.682000000     3.190000000     2.653000000
H    -0.156000000     2.914000000     3.024000000
H     0.457000000     3.907000000     2.059000000
O    -0.481000000     5.242000000     1.390000000
H    -1.012000000     4.856000000     0.694000000
H    -0.893000000     6.088000000     1.564000000
O    -1.096000000    -0.429000000    -4.519000000
H    -0.853000000    -0.574000000    -5.433000000
H    -1.985000000    -0.078000000    -4.560000000
O    -2.196000000     4.507000000    -0.490000000
H    -2.157000000     5.384000000    -0.873000000
H    -2.476000000     3.943000000    -1.211000000
O    -2.342000000     2.852000000    -5.383000000
H    -3.055000000     2.227000000    -5.513000000
H    -2.261000000     3.302000000    -6.224000000
O     4.188000000     3.061000000     0.413000000
H     4.562000000     2.825000000    -0.436000000
H     3.259000000     2.840000000     0.335000000
O     4.789000000    -5.839000000     3.640000000
H     4.800000000    -6.561000000     4.269000000
H     3.895000000    -5.834000000     3.297000000
O    -3.224000000     3.335000000    -2.797000000
H    -3.193000000     2.469000000    -2.390000000
H    -2.992000000     3.178000000    -3.712000000
O     0.704000000     2.062000000    -5.633000000
H     0.242000000     2.895000000    -5.537000000
H     0.046000000     1.399000000    -5.426000000
O     5.102000000    -3.630000000     2.017000000
H     4.465000000    -3.177000000     2.571000000
H     5.212000000    -4.486000000     2.430000000
O    -6.604000000     0.454000000     1.695000000
H    -6.183000000     0.968000000     1.006000000
H    -6.234000000    -0.423000000     1.599000000
O     4.242000000     4.433000000    -3.677000000
H     3.566000000     4.634000000    -4.324000000
H     3.974000000     4.913000000    -2.893000000
O     2.292000000    -3.859000000    -0.479000000
H     1.617000000    -4.120000000    -1.106000000
H     1.804000000    -3.540000000     0.279000000
O    -4.877000000    -5.782000000     0.139000000
H    -4.799000000    -6.226000000    -0.705000000
H    -4.231000000    -5.076000000     0.099000000
O    -0.610000000    -4.834000000     4.237000000
H    -0.803000000    -4.124000000     3.625000000
H    -1.418000000    -5.346000000     4.273000000
O     1.698000000    -6.029000000     5.249000000
H     1.291000000    -5.770000000     4.423000000
H     1.030000000    -6.555000000     5.690000000
O     4.072000000    -4.695000000    -2.165000000
H     4.247000000    -3.872000000    -2.622000000
H     3.442000000    -4.460000000    -1.484000000
O     1.346000000    -1.157000000    -2.865000000
H     0.687000000    -0.722000000    -3.406000000
H     1.066000000    -0.990000000    -1.965000000
O     1.760000000     5.506000000    -3.235000000
H     0.855000000     5.378000000    -3.521000000
H     1.689000000     6.048000000    -2.450000000
O    -1.613000000    -2.502000000    -3.041000000
H    -2.266000000    -2.307000000    -2.368000000
H    -1.314000000    -1.643000000    -3.340000000
O     1.006000000     7.472000000    -1.210000000
H     0.766000000     8.127000000    -0.554000000
H     0.174000000     7.069000000    -1.461000000
O     2.372000000    -5.632000000     2.363000000
H     1.634000000    -5.078000000     2.110000000
H     2.412000000    -6.305000000     1.683000000
O     0.816000000    -2.969000000     5.514000000
H     0.818000000    -3.272000000     6.422000000
H     0.387000000    -3.673000000     5.027000000
O     2.747000000     1.360000000     2.804000000
H     2.097000000     0.819000000     2.356000000
H     2.370000000     2.240000000     2.802000000
O    -4.398000000     0.646000000     4.396000000
H    -3.865000000     1.201000000     3.826000000
H    -3.928000000    -0.188000000     4.424000000
O     0.067000000    -7.407000000     3.091000000
H    -0.256000000    -7.771000000     3.915000000
H    -0.120000000    -6.470000000     3.153000000
O    -2.801000000    -3.987000000     0.452000000
H    -3.097000000    -3.357000000    -0.205000000
H    -2.305000000    -3.463000000     1.081000000
O    -3.919000000    -4.135000000     5.114000000
H    -3.496000000    -4.809000000     4.581000000
H    -4.310000000    -4.617000000     5.843000000
O     2.789000000    -2.556000000     3.358000000
H     2.272000000    -2.862000000     2.613000000
H     2.194000000    -2.621000000     4.105000000
O    -5.442000000     2.110000000    -0.382000000
H    -5.910000000     1.770000000    -1.145000000
H    -5.817000000     2.979000000    -0.239000000
O    -1.058000000     0.975000000     3.627000000
H    -1.364000000     0.070000000     3.695000000
H    -1.006000000     1.278000000     4.534000000
O    -1.643000000     7.129000000    -1.536000000
H    -2.479000000     7.273000000    -1.093000000
H    -1.483000000     7.941000000    -2.015000000
O     3.737000000    -2.343000000    -3.468000000
H     4.018000000    -1.448000000    -3.657000000
H     2.802000000    -2.265000000    -3.280000000
O    -0.839000000     4.921000000    -4.180000000
H    -1.107000000     4.046000000    -4.460000000
H    -1.641000000     5.442000000    -4.220000000
O     4.662000000    -2.168000000    -0.712000000
H     3.776000000    -2.527000000    -0.658000000
H     5.008000000    -2.250000000     0.177000000
O    -4.181000000    -2.507000000    -1.377000000
H    -4.927000000    -2.136000000    -0.907000000
H    -4.574000000    -3.054000000    -2.056000000
O    -6.288000000     0.827000000    -2.681000000
H    -6.010000000     0.612000000    -3.571000000
H    -6.230000000    -0.001000000    -2.205000000
O    -5.297000000    -1.836000000     1.943000000
H    -5.461000000    -2.741000000     1.675000000
H    -4.590000000    -1.900000000     2.584000000
O     4.669000000     5.622000000    -1.139000000
H     5.160000000     6.127000000    -0.492000000
H     4.317000000     4.880000000    -0.647000000
O     0.278000000    -4.202000000    -2.426000000
H    -0.405000000    -3.533000000    -2.480000000
H     0.333000000    -4.561000000    -3.311000000
O     4.795000000     0.589000000    -4.288000000
H     4.171000000     0.995000000    -4.889000000
H     5.590000000     0.476000000    -4.809000000
