144
-2799.03571
O     3.699000000     2.326000000    -3.278000000
H     3.597000000     3.270000000    -3.156000000
H     4.107000000     2.238000000    -4.139000000
O    -3.177000000    -2.103000000     3.516000000
H    -2.767000000    -2.574000000     2.790000000
H    -2.484000000    -1.535000000     3.854000000
O    -4.311000000     2.084000000     1.325000000
H    -3.782000000     2.738000000     0.867000000
H    -3.710000000     1.688000000     1.955000000
O     5.295000000     2.586000000     2.432000000
H     4.623000000     2.171000000     2.974000000
H     4.925000000     2.586000000     1.549000000
O    -0.782000000    -0.981000000     4.288000000
H    -0.076000000    -1.395000000     4.785000000
H    -0.333000000    -0.402000000     3.672000000
O    -2.059000000     2.020000000     2.963000000
H    -1.928000000     2.959000000     2.838000000
H    -1.207000000     1.631000000     2.765000000
O    -2.433000000     4.143000000     0.836000000
H    -2.352000000     3.828000000    -0.064000000
H    -1.530000000     4.246000000     1.136000000
O     7.301000000     2.862000000    -0.540000000
H     6.653000000     2.289000000    -0.132000000
H     7.944000000     2.264000000    -0.921000000
O    -3.010000000     3.368000000    -1.604000000
H    -2.597000000     3.277000000    -2.463000000
H    -3.740000000     2.749000000    -1.623000000
O     4.204000000     2.394000000    -0.120000000
H     4.459000000     2.202000000    -1.022000000
H     4.108000000     3.346000000    -0.095000000
O     6.322000000     0.216000000     0.482000000
H     5.685000000    -0.277000000     0.999000000
H     5.951000000     0.235000000    -0.401000000
O    -2.241000000     6.035000000    -2.224000000
H    -3.037000000     6.523000000    -2.435000000
H    -2.557000000     5.221000000    -1.832000000
O    -2.444000000     1.868000000    -3.813000000
H    -1.957000000     1.065000000    -3.999000000
H    -3.269000000     1.762000000    -4.286000000
O     0.617000000     1.012000000     2.567000000
H     1.250000000     1.729000000     2.578000000
H     0.787000000     0.555000000     1.743000000
O     0.527000000     2.038000000    -4.830000000
H    -0.232000000     1.573000000    -4.477000000
H     0.581000000     1.749000000    -5.741000000
O     1.668000000    -1.194000000     5.779000000
H     1.940000000    -1.704000000     5.016000000
H     1.542000000    -1.845000000     6.470000000
O     6.161000000     0.615000000    -2.624000000
H     6.455000000     1.404000000    -3.079000000
H     5.620000000     0.155000000    -3.265000000
O     3.390000000     0.889000000     3.778000000
H     2.499000000     1.059000000     4.084000000
H     3.948000000     1.372000000     4.388000000
O    -6.447000000    -0.378000000     0.081000000
H    -6.805000000    -0.991000000    -0.561000000
H    -6.018000000    -0.935000000     0.731000000
O    -2.185000000    -5.847000000    -0.389000000
H    -3.013000000    -5.380000000    -0.509000000
H    -2.147000000    -6.029000000     0.550000000
O     4.396000000    -0.745000000     1.891000000
H     4.774000000    -1.396000000     2.482000000
H     3.828000000    -0.215000000     2.450000000
O     3.581000000    -4.674000000    -2.317000000
H     3.196000000    -4.538000000    -3.183000000
H     2.829000000    -4.746000000    -1.729000000
O     0.435000000    -5.907000000     2.323000000
H     0.476000000    -5.070000000     1.860000000
H    -0.498000000    -6.116000000     2.358000000
O     2.175000000    -5.691000000     4.489000000
H     2.288000000    -5.865000000     3.554000000
H     1.481000000    -6.292000000     4.762000000
O     0.036000000    -1.936000000    -3.355000000
H    -0.507000000    -1.510000000    -4.019000000
H    -0.555000000    -2.074000000    -2.615000000
O     3.538000000     5.736000000    -2.441000000
H     4.199000000     5.184000000    -2.859000000
H     2.798000000     5.725000000    -3.048000000
O    -4.037000000    -3.943000000     0.028000000
H    -3.287000000    -3.631000000     0.535000000
H    -4.030000000    -3.406000000    -0.764000000
O    -2.174000000    -1.821000000     6.587000000
H    -1.592000000    -2.107000000     7.291000000
H    -1.597000000    -1.704000000     5.832000000
O     2.127000000     6.134000000     0.369000000
H     3.063000000     6.169000000     0.565000000
H     2.073000000     6.298000000    -0.572000000
O     1.113000000    -4.940000000    -0.837000000
H     0.769000000    -4.464000000    -0.081000000
H     0.342000000    -5.331000000    -1.246000000
O     2.552000000    -6.677000000     0.947000000
H     2.699000000    -5.835000000     0.515000000
H     1.875000000    -6.496000000     1.599000000
O    -5.681000000    -0.055000000     4.193000000
H    -4.772000000    -0.055000000     4.492000000
H    -5.802000000    -0.916000000     3.794000000
O     0.321000000     4.407000000     2.019000000
H     0.827000000     3.969000000     2.703000000
H     0.961000000     4.944000000     1.553000000
O    -2.598000000    -5.968000000     2.700000000
H    -3.108000000    -6.047000000     3.506000000
H    -2.653000000    -5.041000000     2.471000000
O     1.709000000    -3.105000000     3.598000000
H     1.160000000    -3.370000000     2.860000000
H     1.900000000    -3.922000000     4.059000000
O    -5.212000000     1.705000000    -1.362000000
H    -5.439000000     1.548000000    -0.445000000
H    -5.043000000     0.833000000    -1.719000000
O     6.782000000    -3.675000000    -0.096000000
H     6.137000000    -3.479000000     0.583000000
H     6.444000000    -3.241000000    -0.880000000
O    -2.943000000     0.704000000     5.078000000
H    -2.593000000     1.037000000     4.252000000
H    -2.180000000     0.352000000     5.536000000
O    -0.204000000     7.516000000    -3.436000000
H    -0.731000000     6.996000000    -2.829000000
H    -0.589000000     8.392000000    -3.398000000
O    -0.050000000     7.574000000     1.623000000
H     0.073000000     8.317000000     1.033000000
H     0.753000000     7.060000000     1.532000000
O     3.297000000    -0.673000000    -2.895000000
H     2.413000000    -0.831000000    -2.564000000
H     3.401000000     0.278000000    -2.856000000
O     1.899000000     4.361000000    -4.752000000
H     1.656000000     3.442000000    -4.641000000
H     1.085000000     4.795000000    -5.010000000
O     5.444000000    -2.736000000    -2.253000000
H     5.108000000    -1.845000000    -2.152000000
H     4.660000000    -3.282000000    -2.307000000
O    -6.050000000    -5.969000000     0.502000000
H    -6.798000000    -5.515000000     0.113000000
H    -5.296000000    -5.426000000     0.276000000
O    -3.824000000    -2.954000000    -2.467000000
H    -3.388000000    -3.117000000    -3.304000000
H    -4.745000000    -3.154000000    -2.635000000
O    -5.692000000    -2.274000000     2.409000000
H    -5.889000000    -3.192000000     2.224000000
H    -4.764000000    -2.270000000     2.642000000
O     4.649000000     5.281000000     0.089000000
H     4.385000000     5.439000000    -0.817000000
H     5.338000000     5.925000000     0.254000000
O    -2.717000000     6.733000000     1.702000000
H    -1.827000000     6.949000000     1.979000000
H    -2.692000000     5.793000000     1.527000000
