144
-2771.24441
O     4.762000000     5.317000000     0.371000000
H     5.043000000     4.841000000    -0.410000000
H     4.292000000     4.665000000     0.892000000
O     2.709000000     2.756000000    -5.865000000
H     2.382000000     3.387000000    -5.224000000
H     3.501000000     2.397000000    -5.465000000
O    -4.006000000     0.786000000     2.634000000
H    -3.398000000     0.056000000     2.754000000
H    -3.447000000     1.563000000     2.619000000
O     3.929000000     3.161000000     4.755000000
H     3.817000000     3.801000000     5.458000000
H     3.192000000     2.560000000     4.859000000
O    -2.429000000     3.114000000     2.621000000
H    -2.549000000     3.522000000     1.763000000
H    -2.133000000     3.827000000     3.186000000
O    -3.074000000    -3.825000000    -4.219000000
H    -3.056000000    -3.190000000    -4.934000000
H    -2.715000000    -3.350000000    -3.468000000
O     0.625000000     3.144000000     0.741000000
H     0.179000000     2.297000000     0.711000000
H     0.460000000     3.533000000    -0.117000000
O    -2.407000000     0.239000000    -5.158000000
H    -1.573000000    -0.078000000    -4.810000000
H    -2.830000000     0.666000000    -4.414000000
O    -2.468000000     4.584000000    -1.115000000
H    -3.280000000     5.075000000    -1.242000000
H    -2.756000000     3.705000000    -0.868000000
O     5.801000000    -0.126000000     3.045000000
H     5.531000000    -0.230000000     3.958000000
H     5.571000000    -0.958000000     2.632000000
O     5.147000000     4.837000000    -2.462000000
H     4.371000000     4.998000000    -3.000000000
H     5.865000000     5.236000000    -2.953000000
O    -0.045000000     4.808000000    -2.237000000
H    -0.909000000     4.671000000    -1.849000000
H    -0.124000000     5.634000000    -2.714000000
O     1.621000000    -4.168000000     5.876000000
H     1.077000000    -4.885000000     6.201000000
H     1.637000000    -4.290000000     4.927000000
O     2.066000000     4.422000000    -3.813000000
H     2.294000000     5.328000000    -4.021000000
H     1.304000000     4.493000000    -3.239000000
O     6.860000000     0.120000000    -2.269000000
H     7.365000000     0.824000000    -2.675000000
H     6.187000000    -0.095000000    -2.915000000
O    -3.782000000     1.020000000    -3.031000000
H    -3.688000000     1.357000000    -2.140000000
H    -4.596000000     1.410000000    -3.350000000
O     1.834000000    -3.253000000     2.916000000
H     1.082000000    -2.676000000     3.053000000
H     1.462000000    -4.135000000     2.915000000
O    -7.191000000     1.256000000     3.578000000
H    -6.591000000     1.941000000     3.874000000
H    -6.622000000     0.517000000     3.360000000
O    -1.251000000    -6.563000000     3.972000000
H    -1.615000000    -6.746000000     4.839000000
H    -1.293000000    -5.610000000     3.892000000
O     4.997000000    -2.677000000     2.968000000
H     4.088000000    -2.830000000     3.226000000
H     5.491000000    -2.730000000     3.786000000
O     2.722000000    -2.847000000     0.440000000
H     3.115000000    -1.975000000     0.469000000
H     2.541000000    -3.059000000     1.356000000
O    -1.651000000    -3.816000000     4.757000000
H    -1.412000000    -3.057000000     4.225000000
H    -2.355000000    -3.499000000     5.323000000
O     5.690000000    -2.827000000    -1.243000000
H     4.759000000    -2.843000000    -1.019000000
H     5.707000000    -2.628000000    -2.179000000
O     2.569000000    -1.535000000     7.159000000
H     2.780000000    -2.458000000     7.302000000
H     2.167000000    -1.512000000     6.291000000
O    -0.336000000    -1.686000000    -5.313000000
H     0.077000000    -0.857000000    -5.554000000
H     0.063000000    -2.331000000    -5.897000000
O     1.047000000     0.534000000    -6.121000000
H     1.313000000     1.398000000    -5.807000000
H     1.498000000     0.436000000    -6.960000000
O    -0.343000000    -2.383000000    -2.755000000
H    -0.318000000    -2.008000000    -3.636000000
H     0.574000000    -2.557000000    -2.543000000
O    -4.760000000    -2.538000000     2.124000000
H    -3.967000000    -2.012000000     2.218000000
H    -4.467000000    -3.337000000     1.685000000
O     3.313000000     3.416000000     1.589000000
H     3.407000000     2.994000000     2.443000000
H     2.379000000     3.345000000     1.389000000
O    -0.521000000    -5.103000000    -1.346000000
H    -0.480000000    -5.294000000    -0.409000000
H    -0.198000000    -4.205000000    -1.421000000
O    -6.496000000    -0.127000000    -1.408000000
H    -6.038000000    -0.957000000    -1.540000000
H    -6.407000000     0.049000000    -0.472000000
O     1.466000000    -6.236000000     3.871000000
H     0.517000000    -6.358000000     3.902000000
H     1.802000000    -6.793000000     4.574000000
O     1.529000000     1.802000000     5.460000000
H     0.629000000     2.117000000     5.539000000
H     1.441000000     0.863000000     5.294000000
O    -1.826000000     0.155000000     7.244000000
H    -1.234000000     0.896000000     7.110000000
H    -2.157000000     0.271000000     8.134000000
O    -0.371000000    -6.040000000     1.172000000
H    -0.135000000    -6.957000000     1.309000000
H    -1.159000000    -5.914000000     1.701000000
O    -4.634000000     0.742000000     6.173000000
H    -4.109000000     1.152000000     6.861000000
H    -4.032000000     0.135000000     5.743000000
O    -3.101000000    -1.418000000     5.260000000
H    -2.518000000    -1.005000000     5.897000000
H    -2.649000000    -1.318000000     4.422000000
O     0.722000000    -0.777000000     5.319000000
H     0.516000000    -1.308000000     4.549000000
H     0.220000000    -1.180000000     6.028000000
O    -3.271000000     2.247000000    -0.184000000
H    -2.724000000     1.486000000     0.014000000
H    -4.122000000     2.037000000     0.201000000
O    -5.010000000    -2.475000000    -1.618000000
H    -4.080000000    -2.638000000    -1.460000000
H    -5.402000000    -3.347000000    -1.657000000
O     4.562000000    -0.484000000    -3.728000000
H     4.408000000     0.441000000    -3.919000000
H     4.286000000    -0.942000000    -4.522000000
O     2.218000000    -3.415000000    -2.048000000
H     2.562000000    -3.371000000    -1.156000000
H     2.995000000    -3.378000000    -2.606000000
O     5.131000000     2.191000000    -4.169000000
H     5.652000000     2.171000000    -4.972000000
H     5.395000000     3.001000000    -3.732000000
O    -2.448000000    -2.958000000    -1.052000000
H    -1.639000000    -2.672000000    -1.478000000
H    -2.155000000    -3.512000000    -0.329000000
O    -5.410000000    -2.671000000     4.700000000
H    -5.094000000    -2.732000000     3.799000000
H    -4.766000000    -2.119000000     5.143000000
O    -6.081000000    -0.509000000     1.229000000
H    -5.815000000    -1.376000000     1.535000000
H    -5.405000000     0.081000000     1.562000000
O     6.552000000     3.109000000    -0.933000000
H     7.180000000     2.557000000    -1.398000000
H     6.052000000     3.540000000    -1.626000000
O    -0.467000000     3.228000000    -7.900000000
H    -0.115000000     3.102000000    -7.019000000
H     0.141000000     3.838000000    -8.316000000
