144
-2809.42098
O    -1.134000000     3.482000000    -4.504000000
H    -1.013000000     4.399000000    -4.752000000
H    -1.685000000     3.516000000    -3.722000000
O    -1.023000000     2.726000000     4.335000000
H    -0.327000000     2.668000000     3.679000000
H    -1.049000000     1.856000000     4.733000000
O    -2.622000000    -1.472000000     6.891000000
H    -1.820000000    -1.951000000     7.099000000
H    -3.303000000    -1.915000000     7.396000000
O     0.777000000     3.056000000     2.291000000
H     0.087000000     2.746000000     1.704000000
H     1.569000000     2.614000000     1.985000000
O    -1.319000000    -0.792000000    -3.858000000
H    -1.737000000    -1.650000000    -3.926000000
H    -1.340000000    -0.588000000    -2.923000000
O    -1.647000000     0.226000000    -6.649000000
H    -1.379000000     1.127000000    -6.472000000
H    -1.890000000    -0.124000000    -5.792000000
O    -4.733000000    -4.943000000     1.162000000
H    -4.727000000    -4.284000000     1.857000000
H    -4.582000000    -4.445000000     0.359000000
O     2.113000000    -4.379000000     2.154000000
H     2.196000000    -4.834000000     2.992000000
H     1.175000000    -4.210000000     2.066000000
O     3.252000000     3.237000000     0.099000000
H     2.813000000     3.917000000    -0.412000000
H     3.892000000     3.711000000     0.629000000
O     5.642000000     2.062000000    -2.052000000
H     4.894000000     2.256000000    -1.487000000
H     6.402000000     2.367000000    -1.557000000
O    -4.497000000    -3.816000000    -1.396000000
H    -5.250000000    -3.870000000    -1.984000000
H    -4.166000000    -2.925000000    -1.512000000
O     3.820000000     4.944000000    -2.714000000
H     3.022000000     5.432000000    -2.509000000
H     3.507000000     4.113000000    -3.070000000
O     1.718000000     1.166000000     4.462000000
H     2.235000000     1.268000000     3.663000000
H     2.221000000     1.628000000     5.133000000
O     1.015000000     4.379000000    -2.189000000
H     1.327000000     3.674000000    -2.755000000
H     0.448000000     3.943000000    -1.553000000
O    -3.125000000     4.784000000     1.181000000
H    -3.402000000     4.011000000     1.671000000
H    -3.935000000     5.268000000     1.020000000
O     1.540000000    -1.522000000     5.334000000
H     1.306000000    -1.919000000     4.495000000
H     1.674000000    -0.596000000     5.132000000
O    -3.950000000     4.696000000    -3.454000000
H    -4.694000000     5.103000000    -3.896000000
H    -4.276000000     3.841000000    -3.173000000
O     7.936000000    -1.401000000    -1.253000000
H     8.022000000    -2.254000000    -0.827000000
H     7.040000000    -1.125000000    -1.059000000
O    -5.646000000    -3.170000000     2.934000000
H    -6.051000000    -3.781000000     3.549000000
H    -5.506000000    -2.373000000     3.445000000
O     0.694000000    -4.595000000    -2.250000000
H     0.003000000    -4.158000000    -1.752000000
H     0.464000000    -4.439000000    -3.166000000
O     3.578000000     1.676000000     2.240000000
H     3.248000000     1.975000000     1.392000000
H     4.486000000     1.978000000     2.263000000
O    -0.804000000    -4.392000000     2.199000000
H    -1.359000000    -4.353000000     2.978000000
H    -1.075000000    -5.194000000     1.751000000
O     5.228000000     2.877000000    -4.766000000
H     5.160000000     3.290000000    -3.905000000
H     5.537000000     1.990000000    -4.582000000
O    -2.963000000     0.845000000     5.393000000
H    -2.974000000     0.571000000     4.475000000
H    -2.734000000     0.051000000     5.876000000
O     5.129000000    -1.625000000    -1.827000000
H     5.422000000    -1.071000000    -2.551000000
H     4.654000000    -2.340000000    -2.251000000
O    -4.982000000     0.698000000    -2.807000000
H    -4.858000000     1.556000000    -2.401000000
H    -5.691000000     0.831000000    -3.436000000
O     3.575000000    -3.866000000    -2.648000000
H     4.241000000    -4.552000000    -2.599000000
H     2.754000000    -4.315000000    -2.450000000
O    -0.204000000    -2.574000000    -6.750000000
H     0.287000000    -2.330000000    -5.966000000
H    -0.227000000    -3.531000000    -6.731000000
O     6.004000000     0.203000000    -3.995000000
H     5.206000000     0.180000000    -4.522000000
H     5.853000000     0.903000000    -3.360000000
O    -0.138000000    -2.727000000     7.120000000
H     0.505000000    -2.306000000     6.549000000
H     0.008000000    -3.665000000     6.992000000
O    -3.857000000     3.217000000     6.171000000
H    -3.460000000     3.838000000     5.560000000
H    -3.458000000     2.376000000     5.951000000
O     3.581000000     0.784000000    -5.335000000
H     4.004000000     1.220000000    -6.075000000
H     3.244000000    -0.034000000    -5.700000000
O    -4.919000000    -0.435000000     3.878000000
H    -4.681000000     0.274000000     4.476000000
H    -4.132000000    -0.580000000     3.353000000
O    -6.010000000     3.788000000     2.349000000
H    -5.150000000     3.390000000     2.484000000
H    -6.573000000     3.370000000     3.001000000
O    -0.987000000    -3.262000000    -0.448000000
H    -0.781000000    -3.647000000     0.404000000
H    -1.560000000    -2.524000000    -0.245000000
O    -4.632000000    -2.077000000    -4.351000000
H    -4.681000000    -1.936000000    -5.297000000
H    -4.749000000    -1.205000000    -3.973000000
O    -3.769000000     2.489000000     2.508000000
H    -3.829000000     1.652000000     2.046000000
H    -2.969000000     2.417000000     3.029000000
O     6.282000000    -0.689000000     3.359000000
H     5.526000000    -1.255000000     3.208000000
H     6.711000000    -1.063000000     4.129000000
O     4.527000000    -2.737000000     3.072000000
H     3.648000000    -3.095000000     2.951000000
H     4.990000000    -3.404000000     3.579000000
O    -2.585000000    -2.732000000     4.420000000
H    -2.575000000    -2.037000000     3.761000000
H    -2.582000000    -2.267000000     5.257000000
O     5.898000000    -3.141000000     0.668000000
H     5.318000000    -2.791000000     1.344000000
H     5.518000000    -2.835000000    -0.155000000
O     1.851000000     2.609000000    -4.000000000
H     2.310000000     1.940000000    -4.507000000
H     0.929000000     2.498000000    -4.235000000
O    -3.968000000    -1.289000000    -1.272000000
H    -3.749000000    -0.830000000    -0.461000000
H    -4.451000000    -0.644000000    -1.789000000
O    -6.555000000     0.020000000     0.316000000
H    -6.706000000     0.944000000     0.116000000
H    -5.677000000    -0.003000000     0.696000000
O    -2.440000000    -5.459000000     4.728000000
H    -2.353000000    -4.507000000     4.665000000
H    -2.298000000    -5.652000000     5.655000000
O    -7.445000000    -2.495000000     0.666000000
H    -6.723000000    -2.639000000     1.277000000
H    -7.198000000    -1.705000000     0.185000000
O    -1.115000000     4.201000000    -0.585000000
H    -1.393000000     5.006000000    -1.020000000
H    -1.645000000     4.163000000     0.212000000
O     1.475000000    -2.788000000    -4.598000000
H     2.341000000    -3.163000000    -4.758000000
H     1.504000000    -2.501000000    -3.685000000
