144
-2807.55696
O     4.076000000     1.777000000    -5.124000000
H     3.634000000     2.579000000    -4.843000000
H     3.765000000     1.634000000    -6.018000000
O    -3.640000000     1.956000000     3.502000000
H    -3.498000000     1.275000000     2.845000000
H    -2.782000000     2.367000000     3.610000000
O     0.552000000     4.709000000    -0.692000000
H    -0.057000000     4.951000000     0.006000000
H    -0.009000000     4.392000000    -1.400000000
O     5.973000000    -0.143000000    -4.906000000
H     5.353000000     0.579000000    -4.799000000
H     5.439000000    -0.874000000    -5.216000000
O    -1.365000000    -1.960000000    -2.468000000
H    -0.915000000    -1.316000000    -3.014000000
H    -0.662000000    -2.488000000    -2.091000000
O    -0.126000000     2.921000000     2.289000000
H    -0.188000000     2.594000000     3.186000000
H     0.571000000     2.398000000     1.891000000
O     5.158000000    -0.220000000     1.281000000
H     4.648000000     0.586000000     1.356000000
H     6.055000000     0.076000000     1.127000000
O    -5.551000000     2.418000000    -2.899000000
H    -6.149000000     1.804000000    -2.473000000
H    -4.678000000     2.075000000    -2.708000000
O    -0.930000000    -4.227000000     2.376000000
H    -0.604000000    -4.787000000     3.081000000
H    -1.178000000    -3.412000000     2.812000000
O    -4.892000000     4.129000000    -0.129000000
H    -5.018000000     4.856000000     0.482000000
H    -5.152000000     3.353000000     0.366000000
O     2.024000000     1.345000000     2.208000000
H     2.142000000     1.373000000     1.258000000
H     1.557000000     0.525000000     2.367000000
O    -2.419000000    -5.278000000    -0.783000000
H    -1.889000000    -5.040000000    -1.544000000
H    -2.265000000    -6.216000000    -0.668000000
O     2.698000000     4.327000000    -4.712000000
H     1.980000000     4.951000000    -4.603000000
H     3.382000000     4.643000000    -4.121000000
O    -1.386000000     5.153000000     1.166000000
H    -1.233000000     4.465000000     1.814000000
H    -2.217000000     5.549000000     1.427000000
O    -2.746000000     5.081000000    -1.623000000
H    -3.180000000     4.408000000    -1.100000000
H    -2.773000000     5.865000000    -1.074000000
O     5.710000000     2.190000000    -1.256000000
H     4.962000000     2.711000000    -1.546000000
H     5.523000000     1.306000000    -1.571000000
O    -2.925000000     1.552000000    -2.524000000
H    -2.728000000     0.800000000    -1.965000000
H    -2.075000000     1.824000000    -2.869000000
O    -0.887000000    -0.349000000     4.456000000
H    -1.504000000    -0.957000000     4.048000000
H    -0.120000000    -0.886000000     4.657000000
O     4.345000000     5.259000000    -2.877000000
H     4.830000000     6.064000000    -2.698000000
H     4.126000000     4.913000000    -2.012000000
O    -3.876000000    -1.912000000    -3.034000000
H    -2.922000000    -1.989000000    -3.060000000
H    -4.047000000    -1.304000000    -2.316000000
O    -3.067000000    -2.401000000     5.350000000
H    -3.070000000    -2.216000000     4.411000000
H    -2.239000000    -2.858000000     5.501000000
O     7.493000000    -1.928000000    -0.482000000
H     7.233000000    -1.874000000     0.438000000
H     6.761000000    -1.540000000    -0.961000000
O    -5.851000000    -4.221000000     2.716000000
H    -6.416000000    -4.128000000     1.949000000
H    -4.996000000    -4.456000000     2.357000000
O    -2.110000000     4.684000000    -4.446000000
H    -2.548000000     5.067000000    -5.206000000
H    -2.663000000     4.926000000    -3.703000000
O     1.945000000    -2.175000000    -4.466000000
H     1.361000000    -1.450000000    -4.689000000
H     1.406000000    -2.762000000    -3.937000000
O    -0.081000000    -0.381000000    -4.800000000
H    -0.278000000     0.482000000    -4.435000000
H    -0.114000000    -0.253000000    -5.748000000
O     4.096000000    -2.643000000     2.143000000
H     3.700000000    -3.092000000     1.396000000
H     4.386000000    -1.801000000     1.790000000
O    -5.268000000    -0.993000000     3.517000000
H    -4.567000000    -0.787000000     2.899000000
H    -5.463000000    -1.917000000     3.359000000
O     3.828000000    -2.668000000    -2.204000000
H     2.948000000    -2.419000000    -2.489000000
H     3.681000000    -3.264000000    -1.469000000
O     0.680000000    -4.992000000     0.088000000
H     0.701000000    -5.949000000     0.119000000
H    -0.160000000    -4.758000000     0.482000000
O     4.434000000    -1.916000000    -5.827000000
H     3.617000000    -1.980000000    -5.332000000
H     4.838000000    -2.780000000    -5.735000000
O    -6.704000000     0.372000000    -1.469000000
H    -5.853000000     0.002000000    -1.234000000
H    -6.946000000     0.912000000    -0.717000000
O    -2.528000000    -6.871000000     2.593000000
H    -2.103000000    -6.074000000     2.278000000
H    -2.640000000    -6.728000000     3.533000000
O     0.948000000    -3.218000000     4.901000000
H     0.954000000    -4.167000000     4.780000000
H     0.589000000    -3.091000000     5.780000000
O    -3.889000000     0.350000000     6.986000000
H    -3.991000000    -0.078000000     6.136000000
H    -3.457000000    -0.305000000     7.534000000
O    -0.671000000     2.272000000     5.287000000
H    -0.692000000     2.215000000     6.242000000
H    -0.878000000     1.386000000     4.989000000
O    -5.676000000     1.902000000     1.213000000
H    -5.289000000     1.179000000     1.706000000
H    -6.595000000     1.911000000     1.484000000
O    -4.488000000    -0.925000000    -0.459000000
H    -4.419000000    -1.876000000    -0.372000000
H    -4.080000000    -0.582000000     0.336000000
O     5.551000000    -0.448000000    -1.964000000
H     5.975000000    -0.606000000    -2.808000000
H     4.874000000    -1.122000000    -1.907000000
O     3.250000000    -4.252000000     0.102000000
H     3.743000000    -5.050000000     0.292000000
H     2.349000000    -4.550000000    -0.023000000
O     0.987000000    -3.648000000    -2.130000000
H     0.825000000    -3.952000000    -1.237000000
H     1.421000000    -4.385000000    -2.560000000
O    -0.084000000     2.383000000    -3.920000000
H     0.694000000     2.809000000    -4.280000000
H    -0.750000000     3.070000000    -3.910000000
O    -5.136000000    -3.154000000     6.605000000
H    -4.353000000    -3.023000000     6.070000000
H    -5.052000000    -2.515000000     7.313000000
O    -3.942000000    -3.423000000     0.576000000
H    -3.366000000    -3.249000000     1.320000000
H    -3.417000000    -3.966000000    -0.011000000
O    -5.943000000     1.349000000     4.552000000
H    -5.843000000     0.456000000     4.222000000
H    -5.180000000     1.817000000     4.214000000
O     3.518000000     3.931000000    -0.652000000
H     3.716000000     3.736000000     0.264000000
H     2.596000000     4.186000000    -0.649000000
O     2.360000000    -1.268000000     3.848000000
H     1.844000000    -1.961000000     4.259000000
H     3.019000000    -1.733000000     3.332000000
O     7.520000000     1.300000000     0.552000000
H     7.213000000     1.610000000     1.404000000
H     6.946000000     1.731000000    -0.081000000
