144
-2807.41647
O    -3.141000000    -2.040000000     0.691000000
H    -2.879000000    -1.120000000     0.730000000
H    -2.780000000    -2.358000000    -0.136000000
O     1.729000000     2.864000000    -2.773000000
H     2.165000000     2.498000000    -2.003000000
H     1.439000000     2.100000000    -3.270000000
O    -0.708000000    -4.765000000    -2.850000000
H     0.158000000    -4.860000000    -2.454000000
H    -0.531000000    -4.469000000    -3.743000000
O    -0.051000000    -3.524000000    -5.144000000
H     0.497000000    -2.780000000    -4.894000000
H     0.511000000    -4.059000000    -5.704000000
O    -0.136000000    -1.980000000     4.745000000
H    -0.615000000    -2.613000000     4.210000000
H     0.735000000    -1.942000000     4.348000000
O     3.707000000     2.129000000    -0.770000000
H     4.436000000     1.567000000    -0.508000000
H     3.335000000     2.439000000     0.056000000
O     5.745000000    -2.088000000     4.843000000
H     5.566000000    -2.126000000     3.903000000
H     5.380000000    -1.248000000     5.122000000
O     0.315000000     4.401000000     3.191000000
H     0.503000000     4.127000000     2.294000000
H    -0.630000000     4.283000000     3.285000000
O    -3.802000000     6.207000000    -0.622000000
H    -3.042000000     6.105000000    -0.048000000
H    -3.835000000     7.145000000    -0.810000000
O    -0.823000000     3.624000000    -4.883000000
H    -0.916000000     4.488000000    -4.484000000
H    -1.711000000     3.388000000    -5.154000000
O    -2.040000000     1.254000000     5.083000000
H    -2.466000000     0.613000000     4.513000000
H    -1.105000000     1.070000000     4.992000000
O    -3.272000000     2.717000000    -5.240000000
H    -3.452000000     3.206000000    -6.043000000
H    -3.749000000     1.894000000    -5.349000000
O     2.097000000    -4.827000000    -2.199000000
H     3.006000000    -4.954000000    -2.468000000
H     2.133000000    -4.117000000    -1.558000000
O     3.359000000     0.632000000    -3.039000000
H     3.549000000     1.233000000    -2.318000000
H     3.350000000    -0.234000000    -2.633000000
O     3.685000000     1.011000000    -5.444000000
H     2.938000000     1.608000000    -5.473000000
H     3.769000000     0.775000000    -4.520000000
O    -5.391000000    -2.332000000    -2.418000000
H    -5.028000000    -1.450000000    -2.494000000
H    -5.299000000    -2.550000000    -1.491000000
O    -5.486000000     4.798000000    -2.804000000
H    -5.404000000     3.901000000    -3.127000000
H    -5.129000000     4.767000000    -1.916000000
O     3.500000000    -5.671000000     3.146000000
H     2.959000000    -5.393000000     2.406000000
H     3.679000000    -6.596000000     2.977000000
O    -2.810000000     5.670000000    -3.329000000
H    -3.655000000     5.688000000    -2.879000000
H    -2.163000000     5.685000000    -2.624000000
O     0.738000000     0.992000000     4.600000000
H     1.405000000     0.432000000     4.996000000
H     1.124000000     1.868000000     4.610000000
O     1.987000000    -4.244000000     4.901000000
H     2.394000000    -3.395000000     4.726000000
H     2.425000000    -4.848000000     4.302000000
O    -2.198000000    -1.143000000    -6.039000000
H    -1.835000000    -0.413000000    -5.538000000
H    -1.554000000    -1.845000000    -5.940000000
O     3.908000000    -6.254000000     0.301000000
H     3.127000000    -6.766000000     0.510000000
H     4.341000000    -6.751000000    -0.394000000
O    -5.258000000     3.358000000     3.391000000
H    -4.870000000     3.067000000     2.566000000
H    -5.514000000     2.549000000     3.834000000
O     3.307000000     1.279000000     3.001000000
H     2.617000000     0.976000000     2.410000000
H     3.082000000     2.190000000     3.186000000
O    -1.033000000     4.569000000    -1.243000000
H    -0.408000000     4.115000000    -1.809000000
H    -0.497000000     5.170000000    -0.727000000
O     2.366000000     3.686000000     1.118000000
H     3.228000000     4.080000000     1.248000000
H     1.879000000     4.335000000     0.610000000
O    -5.604000000    -2.364000000     3.516000000
H    -6.151000000    -1.767000000     3.004000000
H    -4.955000000    -1.797000000     3.932000000
O     2.641000000    -1.712000000     4.054000000
H     3.390000000    -1.146000000     4.245000000
H     2.843000000    -2.095000000     3.201000000
O     5.104000000    -0.963000000     1.949000000
H     5.189000000    -0.011000000     1.898000000
H     4.378000000    -1.170000000     1.361000000
O     2.421000000    -1.901000000    -4.338000000
H     2.720000000    -1.745000000    -3.442000000
H     2.076000000    -1.057000000    -4.627000000
O    -5.130000000     3.820000000     0.316000000
H    -4.652000000     3.125000000    -0.135000000
H    -4.465000000     4.478000000     0.516000000
O     4.851000000    -4.828000000    -2.706000000
H     5.332000000    -5.655000000    -2.749000000
H     5.033000000    -4.491000000    -1.828000000
O     7.451000000    -2.335000000     0.134000000
H     7.522000000    -3.274000000    -0.033000000
H     6.821000000    -2.266000000     0.852000000
O     6.501000000     0.754000000    -3.476000000
H     7.172000000     0.830000000    -2.798000000
H     5.992000000    -0.017000000    -3.225000000
O    -2.274000000     3.894000000     4.350000000
H    -3.103000000     4.071000000     4.793000000
H    -2.063000000     2.991000000     4.586000000
O     2.053000000    -3.698000000     1.730000000
H     2.536000000    -3.163000000     1.100000000
H     1.178000000    -3.781000000     1.352000000
O     5.684000000    -1.696000000    -2.283000000
H     4.751000000    -1.888000000    -2.183000000
H     6.113000000    -2.246000000    -1.628000000
O    -1.889000000    -1.484000000     6.649000000
H    -1.138000000    -1.614000000     6.070000000
H    -2.632000000    -1.372000000     6.057000000
O     5.814000000     0.423000000    -0.525000000
H     6.613000000     0.278000000    -0.017000000
H     5.718000000    -0.370000000    -1.052000000
O    -1.607000000    -2.556000000    -1.664000000
H    -1.569000000    -2.155000000    -2.532000000
H    -1.471000000    -3.489000000    -1.826000000
O    -2.682000000     4.975000000     1.909000000
H    -2.668000000     4.374000000     2.654000000
H    -2.744000000     5.845000000     2.304000000
O    -1.493000000    -3.160000000     2.992000000
H    -1.953000000    -2.472000000     2.510000000
H    -1.875000000    -3.975000000     2.666000000
O    -5.065000000     0.395000000    -1.647000000
H    -4.650000000     1.233000000    -1.849000000
H    -5.909000000     0.632000000    -1.263000000
O    -3.225000000     2.542000000    -2.180000000
H    -3.158000000     2.441000000    -3.130000000
H    -2.674000000     3.299000000    -1.981000000
O     4.289000000    -3.783000000    -5.368000000
H     3.702000000    -3.032000000    -5.279000000
H     4.445000000    -4.072000000    -4.469000000
O     0.117000000     0.868000000    -5.394000000
H     0.499000000     1.034000000    -6.256000000
H    -0.311000000     1.692000000    -5.160000000
O     4.870000000    -3.780000000    -0.150000000
H     4.249000000    -3.076000000     0.034000000
H     4.440000000    -4.571000000     0.177000000
