144
-2807.56873
O    -2.958000000     2.167000000     7.754000000
H    -2.735000000     2.818000000     7.088000000
H    -2.943000000     1.331000000     7.286000000
O    -1.865000000    -2.698000000    -5.037000000
H    -2.231000000    -3.275000000    -5.707000000
H    -2.081000000    -1.815000000    -5.338000000
O     0.376000000     3.749000000     3.971000000
H    -0.220000000     3.039000000     3.734000000
H     1.199000000     3.526000000     3.537000000
O    -3.598000000     4.646000000     3.376000000
H    -4.251000000     4.627000000     2.677000000
H    -3.134000000     5.473000000     3.248000000
O     4.971000000     0.254000000    -4.632000000
H     5.391000000     1.114000000    -4.655000000
H     4.071000000     0.419000000    -4.911000000
O     2.830000000     1.408000000     3.912000000
H     2.391000000     1.500000000     4.758000000
H     3.325000000     0.592000000     3.987000000
O     1.390000000    -5.996000000    -1.519000000
H     2.022000000    -5.828000000    -2.217000000
H     1.527000000    -5.283000000    -0.895000000
O     0.153000000     4.014000000    -5.832000000
H    -0.102000000     4.235000000    -6.727000000
H    -0.625000000     4.200000000    -5.308000000
O     5.324000000    -1.127000000     1.551000000
H     6.151000000    -0.791000000     1.897000000
H     5.118000000    -1.877000000     2.108000000
O    -2.940000000    -2.188000000    -2.585000000
H    -2.454000000    -2.312000000    -3.400000000
H    -2.413000000    -2.632000000    -1.921000000
O    -2.029000000     4.585000000    -4.636000000
H    -2.360000000     5.483000000    -4.597000000
H    -2.535000000     4.114000000    -3.974000000
O     1.096000000     4.673000000     0.604000000
H     1.469000000     5.511000000     0.877000000
H     1.595000000     4.018000000     1.092000000
O     2.224000000     2.433000000    -1.684000000
H     2.870000000     1.765000000    -1.454000000
H     1.549000000     2.355000000    -1.010000000
O    -3.405000000     3.797000000    -0.457000000
H    -3.434000000     3.029000000     0.114000000
H    -4.286000000     4.167000000    -0.406000000
O     2.164000000    -1.616000000     4.672000000
H     1.400000000    -1.198000000     4.274000000
H     2.395000000    -1.045000000     5.405000000
O     0.041000000     3.003000000     6.768000000
H    -0.418000000     3.206000000     5.952000000
H    -0.141000000     2.076000000     6.921000000
O     2.999000000    -3.900000000    -4.406000000
H     3.096000000    -4.832000000    -4.602000000
H     2.242000000    -3.624000000    -4.923000000
O     4.415000000    -2.991000000     3.357000000
H     3.923000000    -3.551000000     2.757000000
H     3.745000000    -2.571000000     3.896000000
O     5.219000000    -2.544000000    -4.676000000
H     4.504000000    -3.072000000    -4.321000000
H     5.079000000    -1.672000000    -4.308000000
O     2.864000000     3.023000000     1.784000000
H     3.619000000     2.950000000     1.201000000
H     2.997000000     2.334000000     2.435000000
O     0.884000000    -4.483000000     4.286000000
H     0.876000000    -4.997000000     5.094000000
H     1.414000000    -3.715000000     4.497000000
O    -0.976000000    -5.428000000    -4.348000000
H    -0.509000000    -5.867000000    -5.059000000
H    -1.033000000    -4.514000000    -4.629000000
O     1.699000000    -1.551000000    -7.046000000
H     2.376000000    -0.923000000    -6.793000000
H     0.891000000    -1.039000000    -7.060000000
O     3.699000000    -6.796000000     0.782000000
H     3.448000000    -5.926000000     0.472000000
H     3.717000000    -6.713000000     1.736000000
O     2.560000000     0.900000000    -6.747000000
H     2.945000000     1.630000000    -7.231000000
H     2.277000000     1.285000000    -5.918000000
O    -5.434000000     0.487000000    -0.610000000
H    -4.737000000     0.862000000    -0.072000000
H    -5.377000000    -0.455000000    -0.452000000
O    -5.001000000     0.012000000     3.034000000
H    -4.945000000     0.228000000     3.965000000
H    -4.493000000    -0.795000000     2.944000000
O     0.784000000     6.135000000     5.457000000
H     0.798000000     5.446000000     4.792000000
H     0.416000000     6.895000000     5.005000000
O    -2.791000000     2.902000000     5.169000000
H    -3.310000000     3.533000000     4.670000000
H    -2.215000000     2.498000000     4.520000000
O    -2.174000000    -4.971000000     5.588000000
H    -3.027000000    -4.734000000     5.223000000
H    -1.572000000    -4.316000000     5.237000000
O    -5.458000000    -2.606000000    -3.098000000
H    -4.543000000    -2.581000000    -2.818000000
H    -5.690000000    -3.534000000    -3.076000000
O    -3.547000000     1.762000000     1.562000000
H    -3.957000000     1.165000000     2.188000000
H    -2.669000000     1.912000000     1.912000000
O    -0.700000000    -1.982000000     7.811000000
H    -0.228000000    -2.727000000     7.439000000
H    -1.530000000    -2.351000000     8.113000000
O     2.153000000     2.257000000    -4.487000000
H     1.462000000     2.811000000    -4.851000000
H     2.230000000     2.539000000    -3.575000000
O     2.568000000    -3.763000000     1.560000000
H     1.659000000    -4.065000000     1.555000000
H     2.718000000    -3.441000000     0.671000000
O    -1.452000000    -4.193000000    -1.236000000
H    -2.302000000    -4.444000000    -1.600000000
H    -0.813000000    -4.557000000    -1.849000000
O     0.076000000    -4.533000000     1.274000000
H    -0.343000000    -4.365000000     2.118000000
H    -0.635000000    -4.469000000     0.637000000
O     3.326000000     0.081000000     0.104000000
H     3.917000000    -0.557000000     0.503000000
H     2.525000000     0.023000000     0.625000000
O     5.958000000     0.395000000    -1.775000000
H     5.185000000     0.377000000    -2.340000000
H     5.818000000    -0.320000000    -1.155000000
O    -1.178000000     0.348000000     6.419000000
H    -1.181000000    -0.548000000     6.755000000
H    -1.007000000     0.252000000     5.482000000
O     3.240000000    -3.306000000    -1.407000000
H     2.980000000    -3.411000000    -2.322000000
H     4.158000000    -3.036000000    -1.448000000
O    -1.029000000    -1.092000000    -7.270000000
H    -1.323000000    -0.453000000    -6.621000000
H    -1.456000000    -0.822000000    -8.083000000
O    -4.121000000    -2.697000000     3.159000000
H    -4.470000000    -3.291000000     3.824000000
H    -3.178000000    -2.678000000     3.327000000
O    -1.429000000    -2.521000000     3.716000000
H    -1.222000000    -1.587000000     3.741000000
H    -0.592000000    -2.957000000     3.879000000
O    -3.167000000     0.280000000    -4.827000000
H    -3.122000000     0.073000000    -3.894000000
H    -3.883000000    -0.263000000    -5.159000000
O    -3.658000000     2.907000000    -2.998000000
H    -3.415000000     3.226000000    -2.129000000
H    -4.155000000     2.107000000    -2.828000000
O     2.474000000     5.624000000    -2.689000000
H     1.823000000     5.432000000    -2.015000000
H     2.333000000     4.952000000    -3.356000000
O    -1.108000000     5.413000000    -0.790000000
H    -1.829000000     4.793000000    -0.685000000
H    -0.411000000     5.066000000    -0.232000000
