144
-2817.85677
O     2.115000000     3.981000000     3.618000000
H     1.228000000     3.620000000     3.632000000
H     2.358000000     4.055000000     4.540000000
O    -3.648000000     0.623000000     5.076000000
H    -3.136000000     0.029000000     5.625000000
H    -3.606000000     1.464000000     5.530000000
O    -3.869000000    -1.844000000    -4.271000000
H    -4.644000000    -2.254000000    -4.656000000
H    -3.688000000    -1.095000000    -4.839000000
O    -1.232000000     4.789000000     1.329000000
H    -1.294000000     3.959000000     1.802000000
H    -0.339000000     4.802000000     0.984000000
O    -5.098000000     4.368000000     3.843000000
H    -4.582000000     5.122000000     3.557000000
H    -5.356000000     3.932000000     3.031000000
O    -0.125000000     2.759000000     5.859000000
H     0.309000000     2.253000000     5.172000000
H    -0.922000000     3.091000000     5.445000000
O     4.621000000    -1.517000000     2.237000000
H     3.940000000    -1.619000000     2.901000000
H     4.296000000    -2.009000000     1.483000000
O    -0.262000000     3.979000000    -3.428000000
H     0.552000000     3.663000000    -3.035000000
H    -0.896000000     3.964000000    -2.710000000
O     3.493000000     1.948000000     2.524000000
H     2.974000000     2.664000000     2.891000000
H     3.116000000     1.157000000     2.910000000
O     1.479000000    -4.364000000     2.664000000
H     2.234000000    -4.867000000     2.359000000
H     0.863000000    -4.389000000     1.931000000
O    -4.736000000     0.280000000    -2.483000000
H    -5.649000000     0.256000000    -2.770000000
H    -4.238000000     0.457000000    -3.281000000
O     2.815000000    -3.882000000    -6.117000000
H     3.532000000    -3.352000000    -5.769000000
H     2.040000000    -3.330000000    -6.021000000
O     1.217000000     4.941000000     0.093000000
H     1.988000000     4.635000000    -0.385000000
H     1.572000000     5.441000000     0.827000000
O    -1.292000000     7.569000000     2.546000000
H    -1.741000000     8.228000000     2.017000000
H    -1.564000000     6.733000000     2.167000000
O     1.670000000     2.441000000    -2.128000000
H     2.051000000     1.649000000    -2.506000000
H     0.908000000     2.130000000    -1.640000000
O    -0.117000000    -3.584000000    -4.984000000
H    -0.157000000    -4.133000000    -4.201000000
H     0.088000000    -4.194000000    -5.693000000
O     4.376000000    -5.018000000    -2.513000000
H     4.914000000    -5.107000000    -1.727000000
H     4.619000000    -5.769000000    -3.056000000
O    -3.782000000     5.463000000     0.625000000
H    -2.957000000     5.184000000     1.022000000
H    -4.267000000     4.650000000     0.484000000
O     0.166000000    -0.780000000     4.627000000
H     0.329000000     0.094000000     4.273000000
H    -0.704000000    -0.720000000     5.023000000
O    -0.568000000     4.812000000     7.488000000
H    -0.431000000     3.966000000     7.061000000
H     0.008000000     4.789000000     8.253000000
O    -1.992000000    -3.177000000    -7.906000000
H    -1.795000000    -3.129000000    -6.970000000
H    -1.783000000    -4.079000000    -8.149000000
O     2.033000000    -5.077000000    -1.287000000
H     2.098000000    -6.009000000    -1.082000000
H     2.769000000    -4.909000000    -1.876000000
O    -3.029000000     0.077000000    -6.313000000
H    -3.360000000    -0.127000000    -7.188000000
H    -2.348000000     0.733000000    -6.461000000
O     4.606000000    -3.185000000    -0.373000000
H     4.547000000    -2.276000000    -0.667000000
H     4.113000000    -3.681000000    -1.027000000
O     4.811000000     3.365000000     0.502000000
H     4.083000000     2.931000000     0.947000000
H     5.364000000     3.692000000     1.210000000
O    -1.026000000    -3.819000000     3.731000000
H    -0.831000000    -3.013000000     4.209000000
H    -0.198000000    -4.055000000     3.312000000
O    -0.202000000    -5.257000000    -2.803000000
H     0.649000000    -5.393000000    -2.385000000
H    -0.730000000    -6.003000000    -2.518000000
O     1.286000000     2.105000000     8.194000000
H     1.255000000     1.195000000     8.488000000
H     0.496000000     2.212000000     7.663000000
O    -4.827000000    -2.547000000    -1.739000000
H    -3.956000000    -2.823000000    -2.024000000
H    -4.859000000    -1.611000000    -1.940000000
O     4.088000000    -1.600000000    -4.830000000
H     3.177000000    -1.308000000    -4.810000000
H     4.520000000    -1.085000000    -4.148000000
O     2.808000000     3.889000000     6.551000000
H     3.421000000     4.176000000     7.228000000
H     2.141000000     3.394000000     7.027000000
O    -5.522000000     0.593000000     0.095000000
H    -4.886000000     0.222000000     0.707000000
H    -5.101000000     0.522000000    -0.761000000
O     3.984000000     1.335000000     5.835000000
H     4.551000000     1.867000000     5.276000000
H     3.334000000     1.952000000     6.171000000
O     0.581000000     6.333000000     5.339000000
H    -0.139000000     5.841000000     5.735000000
H     0.163000000     7.105000000     4.959000000
O    -2.662000000     3.578000000     4.680000000
H    -3.513000000     3.797000000     4.298000000
H    -2.077000000     3.492000000     3.927000000
O    -3.684000000     0.892000000     2.493000000
H    -2.896000000     1.426000000     2.385000000
H    -3.670000000     0.628000000     3.412000000
O    -4.518000000     3.264000000    -1.380000000
H    -5.441000000     3.279000000    -1.634000000
H    -4.168000000     2.477000000    -1.798000000
O     2.411000000    -2.145000000     3.987000000
H     1.590000000    -1.768000000     4.305000000
H     2.140000000    -2.815000000     3.360000000
O    -3.029000000    -4.766000000    -3.688000000
H    -3.293000000    -3.874000000    -3.911000000
H    -2.111000000    -4.687000000    -3.429000000
O     1.308000000    -1.439000000    -5.809000000
H     0.591000000    -2.015000000    -5.546000000
H     0.974000000    -0.974000000    -6.576000000
O    -5.115000000     3.275000000     1.217000000
H    -4.951000000     3.096000000     0.291000000
H    -5.197000000     2.410000000     1.618000000
O     5.722000000     2.184000000     4.053000000
H     4.950000000     2.008000000     3.514000000
H     6.255000000     2.776000000     3.522000000
O     4.759000000    -0.818000000    -1.229000000
H     5.394000000    -0.182000000    -0.900000000
H     4.262000000    -0.340000000    -1.892000000
O    -0.216000000    -4.709000000     0.653000000
H     0.302000000    -4.638000000    -0.149000000
H    -1.106000000    -4.888000000     0.348000000
O    -3.365000000     2.533000000    -4.340000000
H    -3.291000000     3.472000000    -4.170000000
H    -2.548000000     2.304000000    -4.782000000
O    -1.784000000     3.734000000    -1.295000000
H    -2.696000000     4.008000000    -1.386000000
H    -1.407000000     4.357000000    -0.674000000
O     6.831000000    -1.460000000     0.874000000
H     6.282000000    -1.457000000     1.658000000
H     6.260000000    -1.792000000     0.182000000
O     2.156000000     6.396000000     2.455000000
H     1.502000000     6.832000000     3.002000000
H     2.515000000     5.707000000     3.014000000
