144
-2829.64879
O     5.592000000    -5.098000000     0.431000000
H     6.034000000    -5.558000000     1.145000000
H     6.016000000    -4.240000000     0.401000000
O     2.652000000    -3.380000000     4.312000000
H     2.119000000    -4.006000000     4.804000000
H     2.284000000    -2.525000000     4.535000000
O     3.464000000    -4.525000000    -2.174000000
H     2.750000000    -4.853000000    -1.628000000
H     4.243000000    -4.604000000    -1.623000000
O     0.679000000     2.402000000    -4.498000000
H     1.036000000     1.721000000    -3.927000000
H     0.965000000     2.151000000    -5.377000000
O    -2.638000000     4.112000000    -3.612000000
H    -2.154000000     3.779000000    -2.856000000
H    -1.984000000     4.586000000    -4.125000000
O    -0.492000000    -2.573000000    -4.737000000
H    -0.482000000    -2.535000000    -3.781000000
H     0.370000000    -2.916000000    -4.973000000
O     0.914000000     1.331000000     2.127000000
H     1.768000000     1.310000000     1.694000000
H     0.392000000     0.679000000     1.660000000
O     6.203000000     0.788000000    -0.753000000
H     6.208000000     0.586000000     0.182000000
H     6.290000000    -0.063000000    -1.182000000
O     4.583000000    -3.171000000     2.359000000
H     4.053000000    -3.077000000     3.150000000
H     4.423000000    -4.069000000     2.069000000
O    -5.057000000     3.758000000    -1.200000000
H    -4.891000000     4.615000000    -1.593000000
H    -4.206000000     3.481000000    -0.862000000
O     1.751000000    -0.061000000    -4.011000000
H     1.920000000    -0.837000000    -3.477000000
H     2.236000000    -0.218000000    -4.821000000
O     2.937000000     4.478000000    -1.918000000
H     2.124000000     4.490000000    -1.412000000
H     3.263000000     3.583000000    -1.825000000
O     6.244000000    -1.527000000    -2.565000000
H     6.425000000    -1.263000000    -3.467000000
H     7.022000000    -2.017000000    -2.299000000
O    -1.073000000     1.570000000     4.141000000
H    -0.330000000     1.362000000     3.575000000
H    -1.645000000     0.805000000     4.077000000
O    -7.602000000     4.002000000    -2.083000000
H    -7.399000000     4.753000000    -2.640000000
H    -6.756000000     3.739000000    -1.719000000
O    -3.210000000    -1.231000000    -3.369000000
H    -2.918000000    -0.378000000    -3.690000000
H    -3.408000000    -1.083000000    -2.444000000
O     0.817000000    -1.184000000     4.796000000
H     0.101000000    -1.520000000     4.257000000
H     0.407000000    -0.522000000     5.353000000
O    -2.312000000     1.442000000    -4.205000000
H    -2.816000000     2.234000000    -4.019000000
H    -1.426000000     1.758000000    -4.380000000
O    -4.927000000     0.671000000    -1.461000000
H    -4.176000000     0.872000000    -0.903000000
H    -5.624000000     1.242000000    -1.139000000
O    -1.248000000     6.236000000    -1.419000000
H    -0.659000000     6.220000000    -0.664000000
H    -1.174000000     5.361000000    -1.800000000
O     5.113000000     2.145000000    -4.493000000
H     5.787000000     1.548000000    -4.820000000
H     4.526000000     1.587000000    -3.983000000
O    -6.241000000    -1.650000000    -2.390000000
H    -6.626000000    -1.975000000    -1.577000000
H    -5.788000000    -0.846000000    -2.136000000
O    -3.054000000    -0.436000000     4.163000000
H    -3.766000000    -0.483000000     3.526000000
H    -3.494000000    -0.407000000     5.013000000
O     0.167000000    -4.929000000     0.090000000
H     0.857000000    -4.938000000     0.754000000
H    -0.058000000    -4.004000000    -0.008000000
O     0.644000000     4.247000000    -0.207000000
H     0.785000000     3.562000000     0.447000000
H    -0.136000000     3.966000000    -0.685000000
O     6.039000000    -0.594000000     1.926000000
H     5.420000000    -1.158000000     2.390000000
H     6.764000000    -0.478000000     2.539000000
O    -1.109000000    -2.480000000    -1.886000000
H    -1.000000000    -1.852000000    -1.172000000
H    -2.057000000    -2.570000000    -1.983000000
O     3.583000000     1.860000000    -1.378000000
H     4.485000000     1.548000000    -1.303000000
H     3.124000000     1.443000000    -0.649000000
O    -4.005000000     6.612000000    -1.866000000
H    -3.921000000     7.281000000    -2.546000000
H    -3.107000000     6.451000000    -1.576000000
O     0.483000000     6.729000000     0.731000000
H     0.875000000     6.862000000     1.595000000
H     0.620000000     5.800000000     0.547000000
O    -3.946000000    -3.141000000    -1.370000000
H    -4.476000000    -2.965000000    -0.593000000
H    -4.572000000    -3.137000000    -2.093000000
O    -4.376000000     2.699000000     2.040000000
H    -3.842000000     2.721000000     1.246000000
H    -3.921000000     2.087000000     2.618000000
O    -3.029000000     6.551000000     1.316000000
H    -2.374000000     6.743000000     1.986000000
H    -2.768000000     7.085000000     0.565000000
O    -5.083000000     3.190000000    -4.197000000
H    -5.200000000     2.981000000    -3.270000000
H    -4.429000000     3.889000000    -4.204000000
O     0.176000000     4.976000000    -4.222000000
H     1.104000000     5.204000000    -4.182000000
H     0.167000000     4.041000000    -4.429000000
O     3.583000000     2.371000000     1.332000000
H     3.782000000     3.178000000     1.806000000
H     4.338000000     1.806000000     1.493000000
O    -1.995000000    -5.991000000     0.614000000
H    -1.699000000    -6.678000000     1.211000000
H    -1.190000000    -5.562000000     0.324000000
O     0.618000000     3.932000000     3.336000000
H     0.634000000     3.052000000     2.959000000
H    -0.185000000     3.956000000     3.855000000
O     3.546000000    -2.411000000    -3.625000000
H     3.278000000    -3.058000000    -2.972000000
H     4.315000000    -1.989000000    -3.243000000
O     7.181000000    -2.783000000     0.285000000
H     8.005000000    -2.313000000     0.158000000
H     6.539000000    -2.096000000     0.466000000
O    -3.377000000    -4.013000000     2.121000000
H    -2.592000000    -3.876000000     2.652000000
H    -3.104000000    -4.630000000     1.443000000
O    -4.785000000    -1.303000000     2.147000000
H    -5.582000000    -1.309000000     1.616000000
H    -4.497000000    -2.216000000     2.158000000
O    -6.600000000     1.175000000     2.141000000
H    -6.999000000     1.168000000     1.271000000
H    -5.886000000     1.809000000     2.072000000
O    -7.534000000     1.284000000    -0.352000000
H    -8.054000000     2.050000000    -0.593000000
H    -8.171000000     0.572000000    -0.289000000
O    -5.650000000     5.753000000     0.785000000
H    -4.825000000     6.192000000     0.993000000
H    -5.411000000     4.832000000     0.678000000
O     1.844000000    -5.318000000     2.150000000
H     1.402000000    -5.749000000     2.882000000
H     2.200000000    -4.512000000     2.527000000
O    -1.496000000    -2.592000000     3.977000000
H    -2.085000000    -1.855000000     4.139000000
H    -1.865000000    -3.310000000     4.492000000
O     2.199000000    -7.458000000    -0.363000000
H     2.545000000    -7.583000000     0.520000000
H     1.495000000    -6.818000000    -0.256000000
