144
-2806.69837
O     3.942000000     1.727000000    -0.569000000
H     3.297000000     2.403000000    -0.359000000
H     3.665000000     1.387000000    -1.420000000
O    -2.216000000     0.087000000     4.709000000
H    -1.516000000    -0.551000000     4.568000000
H    -2.113000000     0.717000000     3.995000000
O    -0.927000000     3.178000000    -5.836000000
H    -0.755000000     3.328000000    -4.907000000
H    -1.497000000     2.410000000    -5.853000000
O    -0.521000000     3.376000000    -3.003000000
H    -1.005000000     3.826000000    -2.310000000
H     0.398000000     3.571000000    -2.818000000
O     0.706000000     6.261000000     4.503000000
H     1.317000000     5.877000000     5.132000000
H    -0.101000000     5.759000000     4.617000000
O     4.163000000    -4.767000000     0.487000000
H     4.540000000    -4.024000000     0.958000000
H     4.179000000    -4.500000000    -0.432000000
O    -7.052000000     0.448000000     2.726000000
H    -7.707000000     0.895000000     3.261000000
H    -6.333000000     1.076000000     2.652000000
O     3.997000000    -5.188000000    -2.235000000
H     4.542000000    -5.918000000    -2.529000000
H     3.451000000    -4.976000000    -2.993000000
O    -1.639000000     4.809000000     4.871000000
H    -1.518000000     4.627000000     5.803000000
H    -2.457000000     4.367000000     4.645000000
O     5.854000000     3.120000000    -2.670000000
H     6.225000000     2.588000000    -3.374000000
H     4.970000000     2.773000000    -2.548000000
O     1.913000000     0.976000000    -5.146000000
H     2.226000000     1.438000000    -5.924000000
H     1.090000000     0.572000000    -5.422000000
O    -2.456000000    -7.099000000    -1.378000000
H    -2.608000000    -6.157000000    -1.448000000
H    -3.301000000    -7.494000000    -1.593000000
O     4.289000000    -0.094000000     1.761000000
H     4.755000000     0.352000000     1.054000000
H     3.363000000     0.051000000     1.567000000
O    -0.084000000     6.379000000    -1.101000000
H    -0.906000000     5.889000000    -1.090000000
H    -0.288000000     7.200000000    -0.653000000
O    -3.940000000    -4.679000000     0.412000000
H    -3.331000000    -5.416000000     0.362000000
H    -3.702000000    -4.227000000     1.222000000
O     2.155000000     6.655000000    -2.575000000
H     2.366000000     5.850000000    -2.103000000
H     1.445000000     7.050000000    -2.070000000
O     0.130000000    -5.460000000     0.850000000
H     0.798000000    -4.884000000     1.223000000
H    -0.472000000    -5.628000000     1.575000000
O    -0.894000000     8.158000000     1.257000000
H    -0.035000000     7.999000000     1.648000000
H    -1.417000000     7.397000000     1.509000000
O     5.743000000    -0.850000000    -3.056000000
H     6.053000000    -1.632000000    -3.513000000
H     6.240000000    -0.838000000    -2.238000000
O     3.573000000    -1.240000000     4.513000000
H     3.119000000    -1.296000000     3.672000000
H     4.338000000    -1.806000000     4.410000000
O     1.057000000     4.395000000     1.784000000
H     0.787000000     4.755000000     2.628000000
H     0.339000000     4.612000000     1.190000000
O    -2.352000000     4.288000000    -1.023000000
H    -3.013000000     4.933000000    -0.771000000
H    -2.040000000     3.928000000    -0.193000000
O     3.676000000     0.883000000    -3.099000000
H     4.422000000     0.306000000    -3.264000000
H     3.052000000     0.672000000    -3.794000000
O    -3.505000000     1.371000000     6.560000000
H    -3.683000000     2.217000000     6.149000000
H    -2.969000000     0.902000000     5.920000000
O    -3.597000000     3.181000000    -3.404000000
H    -3.179000000     2.334000000    -3.560000000
H    -3.194000000     3.501000000    -2.597000000
O     0.336000000     1.387000000     5.587000000
H     0.303000000     2.280000000     5.929000000
H    -0.515000000     1.012000000     5.815000000
O     5.087000000    -2.900000000     2.504000000
H     5.005000000    -2.038000000     2.095000000
H     5.684000000    -2.760000000     3.239000000
O    -2.166000000    -3.218000000     2.310000000
H    -2.285000000    -3.912000000     2.957000000
H    -2.725000000    -2.504000000     2.618000000
O    -4.276000000     3.647000000     4.453000000
H    -4.620000000     4.413000000     3.994000000
H    -4.244000000     2.961000000     3.786000000
O    -1.993000000     0.325000000    -2.060000000
H    -1.393000000     0.172000000    -1.330000000
H    -1.518000000     0.920000000    -2.640000000
O    -4.684000000     2.165000000     2.236000000
H    -4.825000000     2.355000000     1.308000000
H    -3.746000000     1.986000000     2.303000000
O    -0.350000000    -3.945000000    -3.822000000
H     0.411000000    -3.946000000    -4.402000000
H    -0.035000000    -4.349000000    -3.013000000
O     6.386000000     1.112000000     0.290000000
H     5.664000000     1.408000000    -0.265000000
H     6.669000000     1.899000000     0.755000000
O    -2.100000000    -2.438000000    -5.944000000
H    -2.913000000    -2.092000000    -5.577000000
H    -1.799000000    -3.077000000    -5.299000000
O    -3.359000000    -1.959000000    -1.570000000
H    -2.892000000    -1.128000000    -1.478000000
H    -2.992000000    -2.517000000    -0.883000000
O     3.018000000     2.460000000     2.284000000
H     2.785000000     1.555000000     2.491000000
H     2.179000000     2.897000000     2.137000000
O    -4.644000000     5.708000000    -0.233000000
H    -5.587000000     5.551000000    -0.280000000
H    -4.567000000     6.597000000     0.115000000
O    -2.299000000     5.733000000     1.709000000
H    -1.888000000     4.887000000     1.885000000
H    -3.041000000     5.525000000     1.141000000
O     2.005000000    -3.780000000     1.859000000
H     2.676000000    -3.863000000     1.182000000
H     2.480000000    -3.890000000     2.683000000
O    -2.867000000    -4.508000000    -2.586000000
H    -3.047000000    -3.596000000    -2.359000000
H    -2.103000000    -4.466000000    -3.161000000
O     1.415000000    -7.205000000    -0.894000000
H     2.018000000    -6.527000000    -1.200000000
H     1.024000000    -6.837000000    -0.101000000
O     1.599000000    -0.073000000     2.335000000
H     1.174000000     0.051000000     3.184000000
H     0.903000000    -0.401000000     1.765000000
O     2.363000000     3.566000000    -3.090000000
H     2.234000000     3.928000000    -3.967000000
H     2.694000000     2.681000000    -3.244000000
O    -4.147000000    -1.978000000     3.502000000
H    -3.504000000    -1.495000000     4.022000000
H    -4.980000000    -1.823000000     3.946000000
O    -2.701000000     7.584000000     3.903000000
H    -2.542000000     7.352000000     4.818000000
H    -2.910000000     6.752000000     3.477000000
O    -0.249000000    -1.726000000     4.283000000
H     0.335000000    -2.130000000     4.925000000
H    -0.169000000    -2.278000000     3.506000000
O     3.302000000     5.194000000    -0.027000000
H     3.658000000     5.999000000     0.349000000
H     2.742000000     4.835000000     0.662000000
O     2.332000000    -4.148000000    -5.321000000
H     1.738000000    -4.393000000    -6.031000000
H     2.935000000    -3.520000000    -5.719000000
