144
-2825.53964
O     4.809000000    -1.568000000     2.170000000
H     4.541000000    -1.624000000     3.087000000
H     5.747000000    -1.756000000     2.183000000
O     1.814000000    -7.784000000    -0.446000000
H     1.436000000    -6.915000000    -0.580000000
H     2.756000000    -7.654000000    -0.549000000
O    -1.891000000     3.516000000     3.433000000
H    -1.476000000     4.130000000     2.828000000
H    -2.829000000     3.625000000     3.278000000
O    -0.829000000     3.271000000    -4.380000000
H    -0.892000000     3.265000000    -3.425000000
H    -1.292000000     4.064000000    -4.647000000
O    -5.486000000    -0.574000000     3.365000000
H    -5.338000000     0.058000000     4.069000000
H    -6.396000000    -0.850000000     3.478000000
O     1.463000000    -1.920000000    -5.984000000
H     1.246000000    -1.194000000    -5.399000000
H     2.311000000    -1.681000000    -6.358000000
O    -5.070000000     7.219000000    -2.308000000
H    -4.240000000     7.687000000    -2.218000000
H    -4.949000000     6.416000000    -1.801000000
O     1.751000000     4.584000000     1.638000000
H     2.678000000     4.823000000     1.642000000
H     1.472000000     4.694000000     2.547000000
O     4.483000000    -0.149000000    -0.176000000
H     4.497000000     0.753000000     0.144000000
H     4.618000000    -0.682000000     0.607000000
O    -1.314000000    -0.598000000    -5.180000000
H    -1.722000000    -1.073000000    -4.456000000
H    -0.459000000    -0.334000000    -4.842000000
O    -6.444000000     2.891000000    -2.015000000
H    -6.002000000     3.717000000    -1.817000000
H    -5.755000000     2.331000000    -2.373000000
O     4.385000000    -0.421000000    -3.373000000
H     4.840000000    -1.217000000    -3.650000000
H     4.218000000    -0.554000000    -2.440000000
O    -1.904000000    -7.431000000     2.109000000
H    -2.331000000    -7.701000000     1.296000000
H    -1.360000000    -6.684000000     1.857000000
O     0.906000000     2.128000000     4.556000000
H     1.335000000     1.708000000     3.810000000
H     0.296000000     1.468000000     4.884000000
O     1.101000000     7.317000000    -2.958000000
H     1.198000000     6.544000000    -2.402000000
H     0.176000000     7.319000000    -3.206000000
O    -0.471000000    -5.066000000     1.803000000
H     0.427000000    -4.875000000     2.075000000
H    -1.000000000    -4.889000000     2.581000000
O    -2.547000000     5.983000000     1.002000000
H    -2.589000000     5.115000000     0.601000000
H    -2.023000000     6.503000000     0.392000000
O    -3.799000000     2.177000000    -4.692000000
H    -2.883000000     2.455000000    -4.717000000
H    -3.963000000     1.973000000    -3.771000000
O     1.799000000     2.992000000    -5.025000000
H     1.839000000     3.844000000    -5.459000000
H     0.868000000     2.856000000    -4.850000000
O    -3.790000000     1.312000000    -1.754000000
H    -3.322000000     2.020000000    -1.310000000
H    -3.984000000     0.682000000    -1.060000000
O    -4.251000000     7.074000000     3.163000000
H    -4.394000000     7.971000000     2.862000000
H    -3.950000000     6.605000000     2.385000000
O     2.163000000    -4.207000000    -2.027000000
H     2.504000000    -3.323000000    -1.890000000
H     1.220000000    -4.124000000    -1.883000000
O    -1.598000000     1.051000000     4.975000000
H    -2.248000000     1.117000000     5.674000000
H    -1.460000000     1.954000000     4.689000000
O    -1.010000000    -3.133000000    -1.725000000
H    -1.792000000    -3.241000000    -1.185000000
H    -1.137000000    -2.293000000    -2.166000000
O     0.802000000     5.173000000    -1.134000000
H     1.345000000     4.906000000    -0.392000000
H     0.169000000     4.463000000    -1.234000000
O    -2.631000000    -1.021000000    -2.610000000
H    -3.079000000    -0.178000000    -2.532000000
H    -3.330000000    -1.671000000    -2.543000000
O    -4.936000000     3.787000000     3.556000000
H    -4.892000000     3.349000000     2.706000000
H    -5.621000000     4.447000000     3.450000000
O     4.242000000     3.942000000    -3.784000000
H     4.696000000     3.204000000    -4.191000000
H     3.321000000     3.811000000    -4.010000000
O    -1.557000000     6.897000000    -4.118000000
H    -1.723000000     7.734000000    -4.551000000
H    -1.889000000     6.240000000    -4.730000000
O    -5.036000000     4.909000000    -0.779000000
H    -4.215000000     4.860000000    -1.268000000
H    -4.816000000     5.409000000     0.008000000
O    -2.734000000     5.197000000    -2.035000000
H    -2.115000000     5.715000000    -2.549000000
H    -2.208000000     4.484000000    -1.673000000
O    -0.102000000    -5.631000000    -0.782000000
H    -0.312000000    -5.655000000     0.151000000
H    -0.406000000    -4.772000000    -1.074000000
O     2.694000000    -1.212000000     4.071000000
H     2.701000000    -0.553000000     3.377000000
H     2.297000000    -0.767000000     4.820000000
O     1.174000000    -3.484000000     4.073000000
H     1.717000000    -2.697000000     4.031000000
H     1.784000000    -4.205000000     3.914000000
O    -4.944000000    -2.796000000     0.370000000
H    -4.907000000    -3.113000000     1.272000000
H    -5.607000000    -3.345000000    -0.050000000
O    -0.942000000    -4.777000000    -4.167000000
H    -0.849000000    -5.647000000    -3.778000000
H    -1.269000000    -4.230000000    -3.453000000
O     1.725000000     0.277000000    -4.238000000
H     1.875000000     1.153000000    -4.591000000
H     2.480000000     0.114000000    -3.672000000
O    -3.895000000    -3.111000000     5.960000000
H    -4.361000000    -3.943000000     5.881000000
H    -3.221000000    -3.148000000     5.282000000
O    -4.700000000    -4.487000000     2.651000000
H    -5.219000000    -5.282000000     2.531000000
H    -3.830000000    -4.717000000     2.326000000
O    -2.419000000    -1.369000000     3.739000000
H    -1.993000000    -0.565000000     4.035000000
H    -3.335000000    -1.123000000     3.614000000
O    -2.938000000     4.920000000    -5.526000000
H    -3.039000000     5.255000000    -6.417000000
H    -3.754000000     4.451000000    -5.353000000
O    -1.557000000    -3.888000000     4.357000000
H    -1.836000000    -3.024000000     4.056000000
H    -0.601000000    -3.839000000     4.374000000
O    -4.565000000    -0.178000000     0.644000000
H    -4.413000000    -1.097000000     0.421000000
H    -5.057000000    -0.210000000     1.465000000
O    -4.636000000     2.503000000     1.000000000
H    -4.636000000     1.588000000     0.721000000
H    -3.892000000     2.894000000     0.542000000
O    -0.318000000     7.448000000     0.204000000
H    -0.457000000     8.279000000    -0.252000000
H     0.187000000     6.918000000    -0.412000000
O     4.798000000    -4.135000000     0.555000000
H     4.616000000    -3.589000000    -0.210000000
H     4.273000000    -3.748000000     1.256000000
O     1.915000000     0.895000000     2.060000000
H     1.529000000     0.092000000     1.708000000
H     1.805000000     1.539000000     1.360000000
O     2.544000000    -4.922000000     2.177000000
H     3.129000000    -5.652000000     2.376000000
H     2.503000000    -4.901000000     1.221000000
