144
-2819.45290
O     6.223000000    -3.615000000     1.331000000
H     5.646000000    -4.376000000     1.392000000
H     6.387000000    -3.514000000     0.393000000
O     3.910000000    -5.374000000     1.351000000
H     3.422000000    -6.127000000     1.017000000
H     3.236000000    -4.732000000     1.574000000
O     2.000000000    -3.109000000     5.364000000
H     1.808000000    -2.432000000     6.012000000
H     2.845000000    -2.853000000     4.994000000
O     4.711000000     0.718000000    -2.035000000
H     5.617000000     0.484000000    -1.832000000
H     4.655000000     1.653000000    -1.838000000
O     0.964000000     2.355000000     1.146000000
H     0.472000000     2.379000000     1.967000000
H     0.482000000     1.737000000     0.596000000
O    -4.883000000     5.669000000    -2.935000000
H    -4.285000000     5.215000000    -2.340000000
H    -4.731000000     5.257000000    -3.786000000
O     4.660000000     4.569000000    -2.707000000
H     4.296000000     4.326000000    -1.856000000
H     5.517000000     4.144000000    -2.731000000
O    -2.462000000    -1.916000000    -3.484000000
H    -1.855000000    -2.017000000    -2.751000000
H    -2.524000000    -0.970000000    -3.616000000
O    -0.016000000     4.264000000    -1.253000000
H     0.121000000     5.178000000    -1.003000000
H     0.497000000     3.763000000    -0.618000000
O     6.805000000    -0.502000000    -0.798000000
H     6.141000000    -1.191000000    -0.774000000
H     7.639000000    -0.972000000    -0.764000000
O     0.383000000    -0.158000000    -4.612000000
H    -0.461000000     0.189000000    -4.324000000
H     0.159000000    -0.824000000    -5.262000000
O    -7.584000000     2.388000000     2.864000000
H    -8.021000000     3.239000000     2.832000000
H    -6.877000000     2.458000000     2.222000000
O    -5.052000000    -1.408000000    -1.731000000
H    -4.505000000    -2.026000000    -2.216000000
H    -4.428000000    -0.815000000    -1.310000000
O    -0.766000000     5.318000000     2.175000000
H    -0.738000000     4.445000000     2.567000000
H    -1.544000000     5.305000000     1.617000000
O    -3.629000000     1.693000000     3.110000000
H    -2.839000000     1.334000000     3.514000000
H    -3.693000000     1.242000000     2.268000000
O    -6.721000000     5.001000000     1.589000000
H    -6.518000000     5.911000000     1.369000000
H    -6.183000000     4.485000000     0.988000000
O     1.300000000    -4.477000000     2.667000000
H     1.019000000    -5.364000000     2.892000000
H     1.041000000    -3.945000000     3.419000000
O     3.863000000    -1.531000000     4.283000000
H     3.433000000    -0.726000000     4.570000000
H     4.205000000    -1.323000000     3.414000000
O    -0.901000000     0.195000000     3.994000000
H    -1.398000000    -0.609000000     3.844000000
H    -0.632000000     0.143000000     4.911000000
O    -2.437000000     0.811000000    -3.920000000
H    -3.300000000     0.564000000    -4.253000000
H    -2.622000000     1.336000000    -3.141000000
O    -2.371000000    -3.291000000     1.666000000
H    -1.879000000    -4.106000000     1.569000000
H    -2.243000000    -2.834000000     0.834000000
O     4.430000000     2.326000000     4.098000000
H     3.708000000     1.824000000     3.719000000
H     4.762000000     2.853000000     3.371000000
O    -5.376000000     1.906000000    -2.666000000
H    -4.517000000     1.878000000    -2.244000000
H    -5.994000000     1.696000000    -1.966000000
O     2.144000000    -3.888000000    -1.877000000
H     2.513000000    -3.006000000    -1.852000000
H     2.532000000    -4.288000000    -2.656000000
O    -2.546000000     4.378000000    -2.047000000
H    -1.590000000     4.426000000    -2.082000000
H    -2.740000000     3.441000000    -2.076000000
O     3.982000000     3.077000000    -0.280000000
H     3.218000000     2.519000000    -0.129000000
H     4.262000000     3.342000000     0.595000000
O    -5.855000000     2.444000000     0.832000000
H    -5.008000000     2.091000000     0.559000000
H    -6.496000000     1.955000000     0.314000000
O    -0.472000000     3.156000000    -5.717000000
H    -0.383000000     2.646000000    -4.911000000
H    -0.442000000     4.068000000    -5.427000000
O     0.945000000    -6.552000000    -1.423000000
H     1.578000000    -5.879000000    -1.673000000
H     1.145000000    -7.293000000    -1.995000000
O    -3.339000000     5.064000000     0.743000000
H    -3.507000000     5.880000000     0.271000000
H    -2.903000000     4.502000000     0.102000000
O    -7.501000000     1.111000000    -0.965000000
H    -7.702000000     0.412000000    -0.344000000
H    -8.194000000     1.055000000    -1.623000000
O     2.949000000     4.177000000    -4.893000000
H     3.705000000     4.188000000    -4.306000000
H     2.802000000     3.249000000    -5.077000000
O    -4.244000000     4.270000000     3.221000000
H    -4.017000000     3.341000000     3.259000000
H    -4.005000000     4.539000000     2.333000000
O     2.042000000     0.559000000     4.356000000
H     1.678000000     1.165000000     5.001000000
H     1.470000000     0.649000000     3.594000000
O     1.276000000    -3.103000000    -5.214000000
H     1.705000000    -2.681000000    -4.469000000
H     1.555000000    -2.591000000    -5.973000000
O    -0.702000000    -2.825000000    -1.583000000
H     0.093000000    -2.906000000    -2.109000000
H    -0.540000000    -3.377000000    -0.818000000
O    -0.414000000     2.872000000     3.417000000
H    -0.825000000     2.016000000     3.538000000
H    -0.083000000     3.103000000     4.285000000
O     2.658000000    -1.394000000    -3.422000000
H     2.042000000    -0.843000000    -3.905000000
H     3.025000000    -0.816000000    -2.754000000
O    -4.852000000    -4.661000000     1.316000000
H    -3.972000000    -4.293000000     1.392000000
H    -5.382000000    -3.945000000     0.965000000
O    -4.942000000     0.196000000    -5.040000000
H    -5.333000000    -0.673000000    -4.949000000
H    -5.478000000     0.759000000    -4.482000000
O     3.718000000     1.456000000    -5.008000000
H     3.748000000     0.912000000    -4.221000000
H     3.260000000     0.918000000    -5.654000000
O    -2.291000000    -2.195000000     4.254000000
H    -2.181000000    -2.889000000     4.903000000
H    -2.270000000    -2.649000000     3.411000000
O     5.613000000    -0.255000000     2.356000000
H     6.033000000     0.604000000     2.317000000
H     6.326000000    -0.863000000     2.550000000
O     6.818000000     1.885000000     0.890000000
H     6.766000000     1.149000000     0.281000000
H     6.579000000     2.649000000     0.364000000
O    -5.016000000    -1.317000000     1.266000000
H    -5.656000000    -1.392000000     0.558000000
H    -4.645000000    -0.441000000     1.161000000
O    -0.170000000    -4.478000000     0.348000000
H     0.281000000    -5.245000000    -0.006000000
H     0.380000000    -4.193000000     1.078000000
O    -4.906000000    -1.513000000     4.017000000
H    -3.985000000    -1.682000000     4.215000000
H    -4.968000000    -1.605000000     3.066000000
O     6.581000000    -3.951000000    -1.628000000
H     5.926000000    -3.927000000    -2.325000000
H     7.374000000    -4.277000000    -2.055000000
