144
-2810.63048
O    -1.747000000     2.616000000    -0.813000000
H    -1.311000000     2.590000000     0.038000000
H    -2.326000000     3.376000000    -0.763000000
O    -3.162000000     0.769000000    -2.496000000
H    -2.982000000     1.224000000    -3.318000000
H    -2.416000000     0.984000000    -1.935000000
O    -0.384000000    -7.082000000    -0.354000000
H    -0.576000000    -6.292000000    -0.860000000
H    -0.224000000    -6.765000000     0.534000000
O     5.082000000     5.988000000    -0.526000000
H     4.267000000     5.879000000    -0.037000000
H     4.968000000     5.447000000    -1.307000000
O    -3.568000000     0.211000000     4.509000000
H    -3.611000000     0.666000000     5.350000000
H    -4.483000000     0.095000000     4.253000000
O    -1.284000000     5.586000000     0.897000000
H    -1.314000000     5.002000000     1.654000000
H    -0.816000000     6.360000000     1.209000000
O     2.966000000    -2.272000000    -0.616000000
H     2.120000000    -1.879000000    -0.402000000
H     2.834000000    -2.673000000    -1.475000000
O     5.565000000    -0.829000000    -0.901000000
H     4.730000000    -1.296000000    -0.938000000
H     6.227000000    -1.517000000    -0.973000000
O    -5.892000000    -0.758000000     3.342000000
H    -5.693000000    -0.833000000     2.408000000
H    -6.734000000    -0.304000000     3.371000000
O    -0.423000000    -3.067000000    -6.180000000
H    -0.686000000    -3.051000000    -5.260000000
H    -0.664000000    -2.203000000    -6.514000000
O     4.075000000     1.451000000     3.629000000
H     4.439000000     2.051000000     2.979000000
H     4.691000000     0.719000000     3.651000000
O    -6.272000000    -3.500000000     3.390000000
H    -6.064000000    -3.731000000     2.484000000
H    -6.500000000    -2.572000000     3.354000000
O     0.995000000     3.803000000     3.252000000
H     0.202000000     3.558000000     2.775000000
H     1.274000000     2.996000000     3.685000000
O    -5.260000000    -4.280000000    -3.194000000
H    -5.684000000    -4.298000000    -2.337000000
H    -5.045000000    -3.358000000    -3.336000000
O    -2.494000000    -5.168000000     3.622000000
H    -2.668000000    -4.231000000     3.531000000
H    -2.172000000    -5.266000000     4.518000000
O    -0.345000000    -3.198000000     2.100000000
H    -1.086000000    -3.010000000     2.675000000
H    -0.064000000    -2.339000000     1.784000000
O    -1.895000000     3.293000000     5.359000000
H    -1.344000000     3.708000000     6.022000000
H    -2.330000000     2.577000000     5.822000000
O     2.289000000     0.574000000    -5.979000000
H     2.843000000     1.330000000    -6.175000000
H     1.402000000     0.933000000    -5.939000000
O    -1.421000000    -3.149000000    -3.694000000
H    -1.902000000    -3.942000000    -3.931000000
H    -1.675000000    -2.977000000    -2.787000000
O     2.103000000    -2.994000000    -3.194000000
H     1.305000000    -3.444000000    -3.472000000
H     2.515000000    -2.713000000    -4.011000000
O    -6.865000000    -2.646000000    -1.378000000
H    -7.717000000    -2.445000000    -1.765000000
H    -6.266000000    -2.013000000    -1.776000000
O    -4.699000000     2.563000000     2.105000000
H    -5.518000000     2.974000000     1.831000000
H    -4.665000000     1.743000000     1.613000000
O     2.052000000     6.499000000    -0.915000000
H     1.733000000     6.078000000    -0.117000000
H     1.688000000     5.972000000    -1.626000000
O     3.128000000     5.084000000     1.689000000
H     2.399000000     4.584000000     2.055000000
H     3.753000000     4.419000000     1.398000000
O    -5.280000000    -3.048000000     0.879000000
H    -5.902000000    -3.067000000     0.152000000
H    -4.563000000    -2.497000000     0.566000000
O     1.847000000     5.753000000     5.286000000
H     1.447000000     5.564000000     4.437000000
H     2.209000000     4.915000000     5.572000000
O    -5.135000000     2.150000000    -1.489000000
H    -4.473000000     1.640000000    -1.956000000
H    -5.950000000     1.970000000    -1.958000000
O     4.658000000     4.183000000    -2.591000000
H     4.984000000     4.520000000    -3.425000000
H     3.708000000     4.144000000    -2.703000000
O     1.628000000     1.549000000     4.649000000
H     1.704000000     1.250000000     5.555000000
H     2.467000000     1.319000000     4.250000000
O    -2.329000000    -5.546000000    -1.931000000
H    -2.441000000    -5.649000000    -2.876000000
H    -2.355000000    -4.600000000    -1.788000000
O     6.294000000     0.462000000    -3.681000000
H     6.950000000     0.172000000    -3.046000000
H     5.699000000     1.014000000    -3.174000000
O     5.193000000     3.024000000     1.220000000
H     6.127000000     2.851000000     1.110000000
H     4.771000000     2.509000000     0.532000000
O     0.246000000    -4.142000000    -0.423000000
H     0.046000000    -4.185000000     0.512000000
H    -0.484000000    -3.653000000    -0.801000000
O    -3.970000000    -5.757000000     1.147000000
H    -3.748000000    -5.941000000     2.060000000
H    -3.475000000    -4.966000000     0.935000000
O    -0.103000000     1.986000000    -5.542000000
H    -0.979000000     1.923000000    -5.161000000
H    -0.198000000     2.614000000    -6.259000000
O    -1.111000000    -0.413000000    -6.307000000
H    -1.747000000    -0.073000000    -6.937000000
H    -0.462000000     0.285000000    -6.223000000
O    -0.967000000     4.001000000    -3.080000000
H    -0.915000000     3.195000000    -2.566000000
H    -1.714000000     4.472000000    -2.712000000
O     3.215000000    -1.901000000    -5.417000000
H     3.947000000    -2.231000000    -5.937000000
H     3.182000000    -0.965000000    -5.616000000
O     1.702000000     3.900000000    -2.697000000
H     0.787000000     4.022000000    -2.953000000
H     1.796000000     2.954000000    -2.588000000
O    -0.780000000    -0.422000000     5.420000000
H    -0.147000000     0.048000000     4.878000000
H    -1.633000000    -0.117000000     5.112000000
O     6.823000000     1.387000000    -0.226000000
H     6.564000000     0.490000000    -0.438000000
H     7.232000000     1.320000000     0.637000000
O    -2.423000000    -2.509000000     3.706000000
H    -2.917000000    -1.986000000     3.076000000
H    -2.620000000    -2.112000000     4.554000000
O    -3.880000000    -1.523000000    -5.417000000
H    -3.839000000    -1.774000000    -4.494000000
H    -2.992000000    -1.233000000    -5.626000000
O     5.051000000     5.197000000     3.960000000
H     4.342000000     5.300000000     3.325000000
H     4.668000000     4.674000000     4.664000000
O     3.381000000     0.392000000    -3.323000000
H     3.087000000     0.746000000    -4.162000000
H     3.222000000    -0.550000000    -3.392000000
O    -4.521000000    -1.597000000    -2.619000000
H    -3.982000000    -2.020000000    -1.951000000
H    -4.274000000    -0.673000000    -2.577000000
O    -5.060000000     0.340000000     0.697000000
H    -5.063000000     0.923000000    -0.062000000
H    -4.464000000    -0.368000000     0.453000000
O    -1.819000000     3.207000000     2.472000000
H    -2.727000000     3.472000000     2.326000000
H    -1.841000000     2.720000000     3.296000000
