144
-2813.53366
O     3.583000000     0.128000000    -1.984000000
H     3.013000000    -0.108000000    -1.252000000
H     4.421000000     0.341000000    -1.575000000
O    -2.470000000     5.079000000    -3.035000000
H    -1.518000000     5.147000000    -3.098000000
H    -2.730000000     5.838000000    -2.513000000
O    -4.933000000    -5.486000000    -0.501000000
H    -4.860000000    -5.653000000    -1.441000000
H    -5.872000000    -5.387000000    -0.347000000
O     3.754000000     1.493000000     3.153000000
H     3.298000000     0.666000000     3.306000000
H     3.599000000     2.004000000     3.947000000
O     2.570000000    -4.092000000    -2.665000000
H     2.083000000    -3.601000000    -3.327000000
H     2.092000000    -4.917000000    -2.578000000
O    -4.390000000    -3.732000000     1.481000000
H    -4.562000000    -4.369000000     0.787000000
H    -3.448000000    -3.800000000     1.640000000
O     1.711000000     2.189000000     5.196000000
H     1.619000000     1.824000000     6.077000000
H     0.973000000     1.823000000     4.708000000
O     1.948000000    -4.596000000     0.225000000
H     1.941000000    -5.073000000    -0.604000000
H     1.024000000    -4.450000000     0.426000000
O     3.262000000     5.500000000    -4.268000000
H     3.061000000     5.685000000    -3.350000000
H     3.094000000     6.326000000    -4.722000000
O    -4.473000000     3.458000000     0.280000000
H    -3.628000000     3.904000000     0.219000000
H    -5.120000000     4.155000000     0.175000000
O     2.004000000    -1.007000000    -4.171000000
H     2.357000000    -0.571000000    -3.395000000
H     2.773000000    -1.368000000    -4.613000000
O     0.994000000    -3.692000000    -5.344000000
H     0.200000000    -4.065000000    -5.727000000
H     0.676000000    -3.002000000    -4.761000000
O    -1.938000000    -5.552000000     2.106000000
H    -1.137000000    -6.039000000     1.913000000
H    -1.785000000    -4.682000000     1.739000000
O     4.445000000    -3.675000000     0.486000000
H     4.961000000    -4.353000000     0.049000000
H     3.558000000    -3.795000000     0.149000000
O    -4.199000000    -1.507000000    -2.314000000
H    -4.379000000    -1.529000000    -1.374000000
H    -4.420000000    -0.614000000    -2.578000000
O     3.502000000    -5.465000000     2.493000000
H     4.158000000    -4.831000000     2.205000000
H     2.822000000    -5.429000000     1.819000000
O    -1.091000000     3.400000000     5.466000000
H    -1.550000000     3.350000000     6.305000000
H    -1.391000000     2.630000000     4.983000000
O     1.353000000     0.835000000    -6.781000000
H     0.662000000     0.204000000    -6.983000000
H     1.677000000     0.568000000    -5.921000000
O     0.776000000     3.716000000    -5.726000000
H     1.506000000     4.318000000    -5.871000000
H     1.164000000     2.845000000    -5.806000000
O    -1.498000000     0.063000000     5.441000000
H    -1.476000000    -0.863000000     5.200000000
H    -1.694000000     0.519000000     4.623000000
O    -4.045000000    -7.078000000     2.754000000
H    -3.262000000    -6.596000000     2.489000000
H    -4.356000000    -7.490000000     1.948000000
O     2.991000000    -1.000000000     2.112000000
H     2.442000000    -1.702000000     2.462000000
H     2.413000000    -0.517000000     1.522000000
O    -5.883000000    -3.471000000     3.977000000
H    -6.836000000    -3.433000000     3.896000000
H    -5.563000000    -3.394000000     3.079000000
O    -1.238000000     6.784000000     0.788000000
H    -1.001000000     6.942000000    -0.126000000
H    -0.432000000     6.953000000     1.277000000
O     0.842000000    -6.132000000    -1.923000000
H     1.221000000    -6.605000000    -2.665000000
H    -0.093000000    -6.085000000    -2.122000000
O    -4.237000000    -0.720000000     2.335000000
H    -3.470000000    -1.203000000     2.642000000
H    -4.561000000    -1.231000000     1.593000000
O    -1.557000000    -5.238000000    -5.448000000
H    -1.988000000    -4.558000000    -4.932000000
H    -1.568000000    -6.011000000    -4.884000000
O    -1.288000000    -5.103000000     4.996000000
H    -0.598000000    -5.265000000     5.640000000
H    -0.918000000    -5.410000000     4.168000000
O     1.039000000    -2.544000000     3.376000000
H     1.010000000    -3.406000000     3.792000000
H     0.174000000    -2.439000000     2.979000000
O    -1.781000000    -2.570000000     4.798000000
H    -1.842000000    -2.618000000     3.844000000
H    -1.433000000    -3.423000000     5.059000000
O    -1.738000000     2.945000000    -5.397000000
H    -0.811000000     3.182000000    -5.418000000
H    -2.127000000     3.554000000    -4.769000000
O     3.824000000     2.096000000    -4.235000000
H     4.240000000     2.857000000    -3.828000000
H     3.712000000     1.473000000    -3.517000000
O    -2.037000000     2.128000000     3.276000000
H    -2.927000000     1.928000000     2.984000000
H    -1.717000000     2.771000000     2.644000000
O    -6.182000000    -1.975000000     0.306000000
H    -5.765000000    -2.692000000     0.784000000
H    -7.041000000    -2.319000000     0.060000000
O     5.478000000     3.434000000    -2.566000000
H     5.372000000     2.691000000    -1.972000000
H     6.103000000     4.008000000    -2.122000000
O    -0.688000000     7.355000000    -2.033000000
H    -0.877000000     8.124000000    -2.570000000
H    -0.017000000     6.879000000    -2.523000000
O     0.211000000     4.864000000    -3.357000000
H     0.954000000     5.000000000    -2.769000000
H     0.580000000     4.394000000    -4.105000000
O     0.631000000     4.615000000     3.923000000
H     1.259000000     4.101000000     4.432000000
H    -0.213000000     4.446000000     4.341000000
O     2.051000000     6.438000000    -1.761000000
H     2.139000000     7.339000000    -2.071000000
H     2.269000000     6.482000000    -0.831000000
O    -1.827000000     0.356000000    -6.703000000
H    -1.585000000     0.742000000    -7.545000000
H    -1.945000000     1.106000000    -6.121000000
O     1.787000000    -1.695000000     5.919000000
H     2.714000000    -1.552000000     5.726000000
H     1.342000000    -1.541000000     5.086000000
O     5.308000000     5.087000000     1.033000000
H     4.354000000     5.051000000     0.967000000
H     5.483000000     5.084000000     1.974000000
O    -3.833000000     1.735000000    -2.827000000
H    -4.056000000     2.407000000    -2.183000000
H    -2.884000000     1.805000000    -2.928000000
O     0.137000000    -7.138000000     1.406000000
H     0.253000000    -6.970000000     0.471000000
H     0.311000000    -8.074000000     1.505000000
O     2.183000000     5.419000000     1.140000000
H     1.751000000     6.262000000     1.278000000
H     2.031000000     4.937000000     1.953000000
O    -2.707000000    -3.552000000    -3.539000000
H    -2.387000000    -4.092000000    -2.816000000
H    -3.095000000    -2.788000000    -3.112000000
O    -1.735000000     4.098000000     1.151000000
H    -1.628000000     5.014000000     1.407000000
H    -1.191000000     4.002000000     0.370000000
O    -1.873000000    -5.404000000    -1.479000000
H    -2.367000000    -6.059000000    -0.986000000
H    -1.580000000    -4.777000000    -0.817000000
