144
-2810.55714
O     4.286000000     3.133000000     3.004000000
H     3.497000000     3.526000000     3.378000000
H     4.312000000     2.251000000     3.372000000
O    -2.802000000     5.315000000    -2.626000000
H    -2.208000000     4.912000000    -3.259000000
H    -2.303000000     5.338000000    -1.810000000
O     1.285000000    -0.594000000    -4.427000000
H     1.379000000     0.321000000    -4.694000000
H     2.119000000    -0.807000000    -4.008000000
O    -3.875000000    -2.748000000     4.350000000
H    -3.192000000    -3.345000000     4.653000000
H    -3.476000000    -2.281000000     3.615000000
O     1.139000000     2.084000000    -5.161000000
H     0.861000000     2.205000000    -6.069000000
H     0.327000000     2.122000000    -4.656000000
O    -1.238000000    -4.222000000    -1.310000000
H    -1.569000000    -3.884000000    -0.478000000
H    -2.022000000    -4.357000000    -1.843000000
O     1.740000000     4.019000000     1.229000000
H     1.821000000     4.607000000     1.980000000
H     2.591000000     3.585000000     1.172000000
O    -7.777000000    -1.284000000    -0.196000000
H    -8.254000000    -1.583000000     0.578000000
H    -6.855000000    -1.321000000     0.062000000
O     4.217000000     4.651000000    -1.927000000
H     3.853000000     3.979000000    -1.351000000
H     5.123000000     4.751000000    -1.635000000
O    -6.565000000    -2.095000000     4.048000000
H    -7.018000000    -2.927000000     3.911000000
H    -5.637000000    -2.308000000     3.949000000
O    -2.694000000     3.642000000     1.605000000
H    -3.078000000     2.841000000     1.962000000
H    -1.757000000     3.454000000     1.550000000
O     1.272000000     4.951000000    -3.840000000
H     1.923000000     4.414000000    -4.292000000
H     1.151000000     4.519000000    -2.994000000
O    -1.603000000    -4.238000000     4.607000000
H    -1.552000000    -5.087000000     4.167000000
H    -1.388000000    -3.602000000     3.925000000
O     5.224000000    -2.938000000    -0.611000000
H     4.877000000    -3.788000000    -0.883000000
H     4.968000000    -2.858000000     0.308000000
O     5.671000000     0.656000000    -0.710000000
H     5.443000000    -0.245000000    -0.938000000
H     6.370000000     0.570000000    -0.062000000
O     6.737000000     1.131000000    -3.289000000
H     6.698000000     0.215000000    -3.564000000
H     6.328000000     1.140000000    -2.424000000
O     5.528000000     0.402000000    -6.381000000
H     4.942000000     0.022000000    -7.036000000
H     4.982000000     1.027000000    -5.904000000
O     4.771000000    -3.608000000     2.246000000
H     5.147000000    -4.413000000     2.601000000
H     3.826000000    -3.761000000     2.252000000
O     4.002000000    -1.356000000    -3.303000000
H     4.712000000    -1.694000000    -3.849000000
H     3.883000000    -2.022000000    -2.626000000
O    -1.282000000     4.218000000    -4.421000000
H    -1.645000000     4.715000000    -5.154000000
H    -0.342000000     4.396000000    -4.453000000
O    -2.497000000     0.197000000     5.002000000
H    -2.026000000    -0.103000000     5.780000000
H    -2.465000000    -0.548000000     4.402000000
O     4.309000000     2.887000000     0.122000000
H     4.543000000     2.042000000    -0.261000000
H     4.690000000     2.866000000     1.000000000
O    -0.829000000    -3.027000000     7.098000000
H     0.100000000    -2.927000000     7.308000000
H    -0.836000000    -3.372000000     6.205000000
O    -4.352000000    -1.316000000     7.067000000
H    -4.210000000    -2.025000000     7.695000000
H    -4.582000000    -1.762000000     6.251000000
O     0.067000000     1.921000000     1.698000000
H     0.748000000     2.593000000     1.667000000
H    -0.039000000     1.646000000     0.787000000
O     2.390000000    -3.422000000    -1.740000000
H     1.698000000    -3.129000000    -1.147000000
H     2.845000000    -4.111000000    -1.255000000
O     3.666000000     2.371000000    -6.390000000
H     3.342000000     2.012000000    -7.215000000
H     2.947000000     2.237000000    -5.772000000
O     3.578000000     0.544000000     4.089000000
H     3.204000000     0.518000000     4.970000000
H     2.819000000     0.506000000     3.506000000
O     2.042000000    -4.643000000     3.790000000
H     1.365000000    -5.038000000     3.240000000
H     1.589000000    -3.944000000     4.262000000
O     0.018000000    -2.444000000    -6.284000000
H     0.447000000    -1.667000000    -5.924000000
H    -0.198000000    -2.975000000    -5.518000000
O    -6.208000000     1.591000000     1.156000000
H    -5.630000000     0.903000000     0.828000000
H    -5.875000000     2.395000000     0.755000000
O    -4.122000000     2.133000000     5.232000000
H    -3.522000000     1.388000000     5.262000000
H    -4.626000000     2.067000000     6.044000000
O     5.371000000    -1.644000000     4.201000000
H     4.876000000    -0.877000000     3.913000000
H     5.215000000    -2.299000000     3.520000000
O     0.752000000    -2.194000000     4.441000000
H     0.971000000    -1.262000000     4.417000000
H     0.052000000    -2.291000000     3.796000000
O    -3.673000000     1.363000000     2.577000000
H    -3.681000000     0.431000000     2.358000000
H    -3.644000000     1.385000000     3.533000000
O    -1.487000000    -1.123000000    -3.034000000
H    -0.757000000    -0.724000000    -3.508000000
H    -1.082000000    -1.522000000    -2.264000000
O    -7.272000000     0.740000000     3.549000000
H    -6.677000000     0.981000000     2.839000000
H    -6.963000000    -0.119000000     3.839000000
O    -0.119000000    -5.963000000     2.518000000
H    -0.979000000    -6.084000000     2.115000000
H     0.256000000    -6.843000000     2.552000000
O    -4.042000000    -1.765000000    -2.204000000
H    -4.170000000    -2.706000000    -2.088000000
H    -3.144000000    -1.683000000    -2.525000000
O     4.095000000     4.843000000    -4.882000000
H     4.845000000     4.329000000    -5.181000000
H     3.962000000     4.567000000    -3.975000000
O     0.345000000     4.293000000    -1.271000000
H     0.706000000     4.190000000    -0.390000000
H    -0.440000000     4.827000000    -1.147000000
O     0.868000000     0.657000000     3.902000000
H     0.587000000     1.122000000     4.690000000
H     0.463000000     1.141000000     3.181000000
O     1.509000000    -3.973000000     0.863000000
H     0.960000000    -3.846000000     1.636000000
H     0.964000000    -4.483000000     0.263000000
O    -4.965000000    -0.978000000     0.255000000
H    -4.317000000    -1.094000000     0.950000000
H    -4.504000000    -1.231000000    -0.546000000
O    -1.773000000     5.830000000    -0.256000000
H    -1.962000000     5.221000000     0.457000000
H    -1.947000000     6.695000000     0.115000000
O    -3.406000000    -3.680000000     0.704000000
H    -4.355000000    -3.803000000     0.677000000
H    -3.281000000    -2.895000000     1.237000000
O    -2.647000000    -6.400000000     1.531000000
H    -3.118000000    -5.661000000     1.146000000
H    -3.025000000    -6.495000000     2.406000000
O    -5.028000000     3.833000000     0.318000000
H    -4.890000000     4.486000000    -0.368000000
H    -4.148000000     3.633000000     0.638000000
