144
-2827.72603
O     3.984000000     4.750000000     3.372000000
H     3.961000000     5.686000000     3.572000000
H     3.486000000     4.667000000     2.559000000
O     2.933000000     2.238000000    -0.885000000
H     3.197000000     1.440000000    -0.427000000
H     3.468000000     2.247000000    -1.679000000
O    -0.775000000     3.254000000    -4.713000000
H    -1.303000000     3.098000000    -5.497000000
H    -0.229000000     4.008000000    -4.939000000
O    -3.797000000     6.504000000    -0.641000000
H    -3.268000000     6.429000000    -1.435000000
H    -3.186000000     6.820000000     0.025000000
O     5.154000000    -6.626000000     2.741000000
H     4.249000000    -6.324000000     2.817000000
H     5.317000000    -7.100000000     3.557000000
O    -5.409000000     0.149000000    -1.488000000
H    -6.253000000    -0.297000000    -1.417000000
H    -4.787000000    -0.548000000    -1.698000000
O     4.979000000    -4.547000000    -1.350000000
H     4.219000000    -5.124000000    -1.276000000
H     5.329000000    -4.496000000    -0.461000000
O    -3.724000000     4.182000000     3.138000000
H    -4.130000000     4.371000000     2.292000000
H    -3.765000000     3.229000000     3.215000000
O     2.350000000     4.689000000     0.620000000
H     2.053000000     4.033000000    -0.011000000
H     2.568000000     5.453000000     0.086000000
O    -4.326000000     2.672000000    -1.149000000
H    -3.736000000     2.609000000    -1.900000000
H    -4.749000000     1.814000000    -1.104000000
O     4.916000000    -0.279000000     3.618000000
H     4.223000000     0.293000000     3.948000000
H     4.469000000    -0.874000000     3.016000000
O    -4.941000000     1.615000000     2.322000000
H    -4.961000000     0.920000000     2.980000000
H    -4.267000000     1.338000000     1.701000000
O     1.867000000    -1.761000000     4.406000000
H     1.351000000    -0.956000000     4.439000000
H     1.584000000    -2.195000000     3.601000000
O     1.438000000     6.636000000     2.121000000
H     0.695000000     6.668000000     2.724000000
H     1.491000000     5.718000000     1.856000000
O    -2.501000000    -0.524000000    -4.587000000
H    -3.152000000    -0.938000000    -4.021000000
H    -1.706000000    -1.041000000    -4.456000000
O     1.692000000    -6.081000000     0.815000000
H     1.246000000    -5.326000000     0.430000000
H     1.234000000    -6.234000000     1.641000000
O    -0.369000000    -5.157000000     2.680000000
H    -1.246000000    -5.399000000     2.385000000
H    -0.025000000    -4.602000000     1.980000000
O     2.941000000    -6.493000000    -1.774000000
H     2.483000000    -5.692000000    -2.032000000
H     2.546000000    -6.734000000    -0.936000000
O    -1.880000000    -7.314000000     1.068000000
H    -1.549000000    -7.017000000     0.220000000
H    -2.519000000    -7.993000000     0.851000000
O     1.648000000    -7.647000000     3.501000000
H     1.680000000    -6.691000000     3.545000000
H     1.406000000    -7.919000000     4.386000000
O     1.087000000     1.052000000     4.956000000
H     1.938000000     1.475000000     4.840000000
H     0.471000000     1.778000000     5.057000000
O    -3.146000000     2.508000000     5.416000000
H    -2.905000000     2.629000000     6.335000000
H    -2.309000000     2.464000000     4.953000000
O     3.991000000    -2.210000000     1.704000000
H     3.083000000    -2.508000000     1.661000000
H     4.460000000    -2.929000000     2.127000000
O    -1.035000000     4.481000000     2.282000000
H    -1.247000000     4.645000000     1.363000000
H    -1.881000000     4.506000000     2.731000000
O     1.571000000     5.291000000    -2.902000000
H     2.144000000     4.885000000    -3.552000000
H     2.170000000     5.648000000    -2.246000000
O     3.805000000     2.119000000     4.569000000
H     4.015000000     3.003000000     4.268000000
H     4.267000000     2.035000000     5.403000000
O    -5.779000000     4.486000000     0.679000000
H    -5.302000000     5.145000000     0.175000000
H    -5.523000000     3.652000000     0.285000000
O     2.236000000    -1.674000000    -2.347000000
H     3.099000000    -1.724000000    -2.758000000
H     2.349000000    -1.055000000    -1.625000000
O    -5.194000000     3.647000000    -4.490000000
H    -6.069000000     3.348000000    -4.242000000
H    -4.614000000     3.264000000    -3.831000000
O     0.478000000    -2.410000000    -6.829000000
H     0.326000000    -1.906000000    -6.030000000
H    -0.247000000    -3.034000000    -6.861000000
O     0.025000000    -1.510000000    -4.189000000
H     0.656000000    -1.744000000    -3.509000000
H     0.214000000    -0.593000000    -4.387000000
O     3.108000000    -2.213000000     6.881000000
H     2.405000000    -1.962000000     6.281000000
H     3.885000000    -2.279000000     6.326000000
O     2.672000000    -4.885000000     4.051000000
H     2.801000000    -4.124000000     4.617000000
H     2.099000000    -4.569000000     3.352000000
O    -0.613000000    -3.280000000     5.105000000
H    -0.389000000    -3.424000000     4.186000000
H     0.232000000    -3.194000000     5.547000000
O     1.211000000     1.138000000    -3.743000000
H     0.568000000     1.842000000    -3.823000000
H     1.445000000     1.131000000    -2.815000000
O     4.407000000    -0.498000000    -0.601000000
H     4.082000000    -0.699000000     0.277000000
H     5.221000000    -0.994000000    -0.675000000
O     3.296000000     6.650000000    -1.153000000
H     3.279000000     7.277000000    -1.876000000
H     4.054000000     6.910000000    -0.629000000
O     1.051000000    -4.161000000    -1.937000000
H     0.746000000    -4.055000000    -1.036000000
H     1.377000000    -3.295000000    -2.183000000
O    -0.873000000    -5.415000000    -4.154000000
H     0.002000000    -5.787000000    -4.037000000
H    -0.765000000    -4.484000000    -3.960000000
O     4.975000000     3.055000000    -2.782000000
H     4.343000000     3.493000000    -3.353000000
H     5.558000000     2.590000000    -3.382000000
O    -3.766000000    -0.569000000     1.113000000
H    -3.907000000    -0.176000000     0.251000000
H    -3.068000000    -1.210000000     0.972000000
O    -3.356000000    -4.498000000     1.996000000
H    -3.764000000    -3.856000000     2.577000000
H    -3.948000000    -5.250000000     2.017000000
O    -0.644000000     3.230000000     4.678000000
H    -0.827000000     3.643000000     3.834000000
H    -0.327000000     3.945000000     5.230000000
O    -2.626000000    -3.156000000    -0.052000000
H    -2.866000000    -3.464000000     0.822000000
H    -1.967000000    -3.781000000    -0.354000000
O    -0.732000000    -6.876000000    -1.327000000
H    -0.299000000    -6.143000000    -1.765000000
H    -1.227000000    -7.311000000    -2.021000000
O     0.097000000     7.617000000    -2.925000000
H    -0.015000000     7.627000000    -1.975000000
H     0.447000000     6.747000000    -3.116000000
O    -2.999000000     1.960000000    -3.461000000
H    -2.798000000     1.101000000    -3.834000000
H    -2.224000000     2.490000000    -3.649000000
O    -4.175000000    -2.033000000    -1.972000000
H    -3.814000000    -2.571000000    -1.268000000
H    -4.088000000    -2.575000000    -2.756000000
