144
-2801.63011
O     3.511000000    -5.931000000     0.785000000
H     3.325000000    -6.860000000     0.923000000
H     2.831000000    -5.638000000     0.178000000
O     0.511000000    -2.308000000     4.713000000
H     0.208000000    -3.128000000     5.102000000
H     0.603000000    -2.504000000     3.781000000
O    -0.419000000    -6.082000000     1.120000000
H    -0.610000000    -5.164000000     0.928000000
H     0.233000000    -6.049000000     1.820000000
O    -2.253000000     5.239000000    -0.765000000
H    -1.974000000     5.929000000    -1.367000000
H    -1.469000000     5.032000000    -0.257000000
O    -1.779000000    -6.889000000    -1.442000000
H    -1.238000000    -6.831000000    -0.654000000
H    -2.316000000    -6.097000000    -1.424000000
O     4.318000000     3.728000000     1.244000000
H     4.253000000     2.852000000     0.862000000
H     4.655000000     4.275000000     0.535000000
O     5.855000000     0.213000000     2.539000000
H     6.257000000    -0.620000000     2.783000000
H     4.914000000     0.063000000     2.636000000
O    -3.139000000    -2.345000000     4.179000000
H    -2.908000000    -2.864000000     4.950000000
H    -2.891000000    -2.896000000     3.437000000
O    -1.407000000     3.979000000     2.951000000
H    -0.988000000     4.456000000     2.235000000
H    -0.903000000     4.222000000     3.728000000
O     2.331000000     3.609000000    -5.470000000
H     3.052000000     3.425000000    -6.073000000
H     1.785000000     4.242000000    -5.936000000
O    -2.576000000     1.538000000     3.006000000
H    -2.052000000     2.336000000     3.071000000
H    -2.614000000     1.352000000     2.068000000
O     3.751000000    -2.996000000    -0.795000000
H     3.135000000    -3.666000000    -1.091000000
H     3.345000000    -2.168000000    -1.050000000
O    -1.673000000     3.874000000    -6.071000000
H    -1.229000000     4.240000000    -6.837000000
H    -1.822000000     2.956000000    -6.297000000
O    -2.380000000     1.303000000    -4.108000000
H    -1.443000000     1.441000000    -4.246000000
H    -2.801000000     1.994000000    -4.620000000
O    -3.031000000     0.158000000     5.105000000
H    -3.087000000    -0.740000000     4.779000000
H    -2.906000000     0.690000000     4.319000000
O    -1.204000000    -0.955000000     7.545000000
H    -1.517000000    -1.793000000     7.204000000
H    -0.754000000    -0.548000000     6.804000000
O     2.640000000     5.323000000     2.549000000
H     3.131000000     5.447000000     3.362000000
H     3.262000000     4.900000000     1.957000000
O    -2.363000000    -4.118000000    -1.767000000
H    -1.785000000    -3.691000000    -1.135000000
H    -3.239000000    -3.807000000    -1.540000000
O     0.289000000    -4.583000000    -3.311000000
H    -0.557000000    -4.791000000    -2.915000000
H     0.070000000    -4.068000000    -4.087000000
O     3.272000000    -0.985000000     2.343000000
H     3.224000000    -1.928000000     2.186000000
H     2.481000000    -0.633000000     1.933000000
O    -5.587000000    -4.484000000     3.256000000
H    -4.835000000    -3.984000000     2.940000000
H    -6.184000000    -3.823000000     3.607000000
O     0.132000000     8.025000000    -0.051000000
H    -0.294000000     7.867000000    -0.893000000
H     1.038000000     8.237000000    -0.277000000
O    -0.877000000    -6.940000000     4.286000000
H    -0.566000000    -6.105000000     3.935000000
H    -1.547000000    -7.226000000     3.665000000
O    -0.782000000    -3.023000000    -5.215000000
H    -1.556000000    -2.712000000    -4.745000000
H    -0.808000000    -2.560000000    -6.052000000
O     2.473000000    -5.285000000    -1.780000000
H     2.479000000    -6.199000000    -2.064000000
H     1.699000000    -4.910000000    -2.199000000
O    -2.667000000    -7.379000000     2.287000000
H    -2.316000000    -8.129000000     1.807000000
H    -2.334000000    -6.616000000     1.816000000
O     1.414000000     2.454000000     5.000000000
H     0.721000000     1.794000000     4.970000000
H     0.948000000     3.289000000     5.034000000
O     2.233000000     0.530000000     6.980000000
H     1.532000000     0.874000000     7.534000000
H     2.122000000     0.983000000     6.144000000
O    -3.161000000    -3.600000000     1.717000000
H    -3.628000000    -3.000000000     1.136000000
H    -2.314000000    -3.735000000     1.292000000
O     2.121000000     0.469000000    -3.624000000
H     1.351000000     0.826000000    -4.067000000
H     2.285000000    -0.365000000    -4.065000000
O     4.577000000     1.635000000    -4.067000000
H     3.848000000     1.018000000    -4.135000000
H     4.298000000     2.264000000    -3.402000000
O    -3.982000000    -1.958000000    -0.866000000
H    -3.995000000    -1.368000000    -1.620000000
H    -4.837000000    -1.839000000    -0.453000000
O    -4.158000000     5.302000000     2.091000000
H    -4.524000000     5.001000000     2.922000000
H    -3.277000000     5.603000000     2.312000000
O    -5.088000000     4.723000000    -0.348000000
H    -4.810000000     4.948000000     0.540000000
H    -4.292000000     4.792000000    -0.874000000
O     1.784000000    -1.848000000    -4.932000000
H     2.011000000    -2.650000000    -5.402000000
H     0.883000000    -1.988000000    -4.640000000
O     3.484000000     3.658000000    -2.213000000
H     2.540000000     3.649000000    -2.371000000
H     3.799000000     4.426000000    -2.690000000
O     4.420000000     1.656000000    -0.665000000
H     4.249000000     2.335000000    -1.318000000
H     3.824000000     0.945000000    -0.897000000
O    -4.056000000     1.794000000    -1.698000000
H    -3.376000000     1.447000000    -2.276000000
H    -3.729000000     1.626000000    -0.815000000
O    -0.152000000     0.232000000     5.110000000
H    -0.942000000     0.149000000     4.576000000
H     0.223000000    -0.649000000     5.121000000
O     0.253000000     2.050000000    -4.850000000
H    -0.277000000     2.841000000    -4.954000000
H     1.118000000     2.297000000    -5.177000000
O     3.846000000     3.399000000     5.345000000
H     2.962000000     3.088000000     5.147000000
H     4.379000000     2.604000000     5.367000000
O     2.583000000    -0.488000000    -1.162000000
H     2.486000000    -0.008000000    -1.985000000
H     1.705000000    -0.489000000    -0.780000000
O    -2.826000000    -1.434000000    -4.415000000
H    -2.638000000    -0.503000000    -4.294000000
H    -3.761000000    -1.465000000    -4.618000000
O    -0.054000000     5.860000000     1.181000000
H     0.822000000     5.597000000     1.462000000
H     0.039000000     6.781000000     0.938000000
O     4.532000000    -3.485000000     1.703000000
H     4.027000000    -4.299000000     1.719000000
H     4.485000000    -3.191000000     0.794000000
O     1.130000000     6.204000000    -3.553000000
H     2.021000000     6.552000000    -3.525000000
H     0.600000000     6.865000000    -3.108000000
O    -2.793000000     0.559000000     0.495000000
H    -1.884000000     0.262000000     0.500000000
H    -3.302000000    -0.223000000     0.709000000
O     1.081000000    -5.357000000     3.053000000
H     1.002000000    -4.554000000     2.537000000
H     1.983000000    -5.348000000     3.373000000
