144
-2822.15696
O     3.066000000    -4.117000000     1.615000000
H     3.391000000    -3.655000000     0.842000000
H     2.116000000    -3.998000000     1.583000000
O     0.543000000    -3.237000000    -2.713000000
H    -0.044000000    -3.271000000    -3.469000000
H     0.927000000    -2.360000000    -2.747000000
O     0.363000000    -5.317000000    -0.625000000
H    -0.104000000    -4.621000000    -0.162000000
H     0.965000000    -4.855000000    -1.208000000
O     4.210000000     4.972000000    -1.080000000
H     4.536000000     4.605000000    -0.258000000
H     3.433000000     5.470000000    -0.828000000
O    -3.681000000     5.941000000    -2.523000000
H    -3.426000000     5.083000000    -2.184000000
H    -3.944000000     6.436000000    -1.747000000
O     3.599000000    -2.278000000    -3.491000000
H     3.251000000    -2.352000000    -4.380000000
H     2.884000000    -1.892000000    -2.985000000
O    -0.796000000     7.926000000    -2.174000000
H    -0.881000000     7.720000000    -1.243000000
H    -0.621000000     8.867000000    -2.196000000
O    -1.405000000    -0.800000000     4.204000000
H    -1.745000000    -0.538000000     5.060000000
H    -2.111000000    -1.315000000     3.814000000
O     0.574000000     3.100000000     3.162000000
H    -0.218000000     2.563000000     3.174000000
H     0.760000000     3.272000000     4.084000000
O     2.984000000     1.193000000     4.031000000
H     2.283000000     1.790000000     3.770000000
H     2.542000000     0.358000000     4.186000000
O     6.613000000    -3.843000000     1.087000000
H     6.584000000    -4.644000000     0.564000000
H     6.029000000    -3.238000000     0.631000000
O    -0.571000000     2.970000000    -5.845000000
H    -1.174000000     3.285000000    -5.172000000
H    -0.985000000     3.217000000    -6.672000000
O    -4.400000000    -3.783000000     4.823000000
H    -4.754000000    -3.234000000     4.124000000
H    -4.663000000    -3.343000000     5.631000000
O     3.577000000     4.850000000     3.123000000
H     2.854000000     4.238000000     2.988000000
H     3.915000000     4.634000000     3.993000000
O    -3.717000000    -3.864000000     1.790000000
H    -2.796000000    -3.915000000     1.534000000
H    -3.835000000    -4.589000000     2.405000000
O     5.487000000    -1.724000000    -0.247000000
H     5.182000000    -1.045000000     0.356000000
H     5.640000000    -1.261000000    -1.071000000
O    -3.817000000     3.706000000    -1.152000000
H    -3.254000000     3.950000000    -0.418000000
H    -4.621000000     4.206000000    -1.014000000
O     1.057000000    -6.973000000     3.380000000
H     1.865000000    -7.163000000     2.904000000
H     1.233000000    -7.263000000     4.275000000
O     4.668000000     0.462000000     1.747000000
H     5.308000000     1.174000000     1.727000000
H     4.114000000     0.660000000     2.502000000
O    -4.765000000    -0.069000000    -3.886000000
H    -5.587000000     0.262000000    -3.523000000
H    -4.279000000     0.716000000    -4.135000000
O    -1.282000000    -6.074000000     2.479000000
H    -0.440000000    -6.400000000     2.795000000
H    -1.073000000    -5.245000000     2.049000000
O    -2.335000000    -6.048000000     5.164000000
H    -2.081000000    -6.000000000     4.242000000
H    -2.636000000    -5.164000000     5.375000000
O     0.016000000    -3.775000000     4.371000000
H     0.227000000    -4.705000000     4.294000000
H     0.025000000    -3.452000000     3.470000000
O     6.061000000    -1.318000000     3.678000000
H     5.566000000    -0.857000000     3.001000000
H     6.023000000    -0.737000000     4.439000000
O    -4.229000000    -1.211000000     2.653000000
H    -4.487000000    -0.636000000     1.933000000
H    -4.105000000    -2.067000000     2.243000000
O     3.228000000     1.465000000    -3.528000000
H     2.458000000     1.168000000    -3.044000000
H     2.880000000     1.780000000    -4.362000000
O    -4.939000000     0.169000000     0.265000000
H    -4.644000000     1.055000000     0.476000000
H    -5.738000000     0.298000000    -0.246000000
O    -4.692000000     4.711000000     2.474000000
H    -3.852000000     4.554000000     2.042000000
H    -4.992000000     3.840000000     2.737000000
O    -0.405000000     0.465000000    -4.517000000
H    -0.423000000     0.066000000    -5.387000000
H    -0.434000000     1.407000000    -4.685000000
O    -2.455000000     3.808000000     1.210000000
H    -1.626000000     4.286000000     1.230000000
H    -2.264000000     2.978000000     1.647000000
O    -0.101000000     5.277000000     1.529000000
H     0.579000000     5.802000000     1.105000000
H     0.355000000     4.822000000     2.237000000
O    -4.134000000    -6.700000000    -0.201000000
H    -4.012000000    -7.186000000     0.615000000
H    -3.432000000    -7.010000000    -0.772000000
O     2.134000000     2.669000000    -5.769000000
H     2.150000000     2.391000000    -6.684000000
H     1.204000000     2.712000000    -5.548000000
O    -2.151000000     7.019000000     1.148000000
H    -1.776000000     7.898000000     1.196000000
H    -1.507000000     6.460000000     1.583000000
O    -6.184000000    -3.875000000     0.596000000
H    -6.178000000    -4.142000000    -0.324000000
H    -5.274000000    -3.969000000     0.878000000
O    -2.160000000     5.030000000    -4.565000000
H    -2.571000000     5.571000000    -3.890000000
H    -1.705000000     5.656000000    -5.129000000
O     1.378000000    -1.068000000     4.796000000
H     0.452000000    -0.849000000     4.693000000
H     1.511000000    -1.824000000     4.224000000
O     5.602000000     0.095000000    -2.277000000
H     4.735000000     0.424000000    -2.515000000
H     5.944000000    -0.285000000    -3.086000000
O     1.362000000    -0.728000000    -2.607000000
H     1.180000000    -0.298000000    -1.772000000
H     0.630000000    -0.478000000    -3.170000000
O    -1.551000000     1.505000000     2.309000000
H    -1.347000000     0.930000000     1.571000000
H    -1.663000000     0.912000000     3.051000000
O     1.833000000     6.028000000    -4.694000000
H     1.441000000     6.506000000    -5.424000000
H     1.117000000     5.499000000    -4.343000000
O    -2.560000000    -3.879000000    -1.581000000
H    -1.679000000    -4.071000000    -1.903000000
H    -2.446000000    -3.738000000    -0.641000000
O     5.503000000     4.394000000     1.315000000
H     5.846000000     3.535000000     1.563000000
H     4.818000000     4.573000000     1.959000000
O     3.516000000    -4.508000000    -1.246000000
H     4.465000000    -4.541000000    -1.123000000
H     3.397000000    -4.012000000    -2.056000000
O    -4.943000000    -2.934000000    -2.825000000
H    -4.766000000    -2.105000000    -3.269000000
H    -4.148000000    -3.109000000    -2.320000000
O    -3.789000000     2.668000000    -3.853000000
H    -3.159000000     3.273000000    -4.245000000
H    -3.762000000     2.868000000    -2.917000000
O     1.176000000    -7.717000000     0.125000000
H     0.668000000    -6.907000000     0.089000000
H     0.978000000    -8.162000000    -0.699000000
O     3.371000000    -6.929000000     1.656000000
H     3.275000000    -5.977000000     1.654000000
H     2.658000000    -7.243000000     1.100000000
