144
-2849.51932
O     0.052000000    -3.980000000    -1.715000000
H     0.423000000    -3.866000000    -0.840000000
H     0.421000000    -4.806000000    -2.027000000
O     4.551000000    -6.326000000     2.699000000
H     3.864000000    -5.779000000     3.081000000
H     4.134000000    -7.178000000     2.570000000
O    -2.670000000    -1.543000000     4.741000000
H    -3.144000000    -0.760000000     4.459000000
H    -1.746000000    -1.303000000     4.664000000
O     1.395000000    -1.593000000    -3.444000000
H     2.246000000    -2.028000000    -3.387000000
H     1.284000000    -1.170000000    -2.593000000
O     0.880000000     1.124000000     3.055000000
H     1.029000000     1.153000000     2.110000000
H     1.748000000     1.247000000     3.439000000
O     0.312000000    -6.573000000    -2.628000000
H    -0.043000000    -6.880000000    -3.463000000
H    -0.289000000    -6.921000000    -1.970000000
O     1.611000000    -5.891000000     2.297000000
H     0.666000000    -6.031000000     2.355000000
H     1.702000000    -5.052000000     1.846000000
O     0.279000000     2.909000000    -5.401000000
H    -0.591000000     2.542000000    -5.242000000
H     0.869000000     2.157000000    -5.356000000
O     2.267000000     4.361000000     0.034000000
H     2.081000000     4.732000000     0.897000000
H     3.098000000     3.898000000     0.147000000
O    -5.239000000    -1.144000000     1.313000000
H    -5.311000000    -1.790000000     2.015000000
H    -4.552000000    -0.546000000     1.607000000
O    -3.971000000     1.205000000     2.317000000
H    -3.311000000     1.540000000     2.924000000
H    -4.759000000     1.711000000     2.517000000
O    -1.521000000    -7.404000000    -0.826000000
H    -1.546000000    -6.561000000    -0.373000000
H    -2.381000000    -7.478000000    -1.240000000
O    -1.084000000    -7.161000000     1.920000000
H    -1.189000000    -7.714000000     1.146000000
H    -1.478000000    -6.325000000     1.672000000
O    -4.772000000     3.422000000    -0.610000000
H    -5.251000000     4.250000000    -0.568000000
H    -4.164000000     3.460000000     0.129000000
O     0.793000000     5.656000000    -1.777000000
H     1.316000000     4.990000000    -1.331000000
H     0.929000000     5.483000000    -2.709000000
O    -4.519000000    -2.407000000    -1.632000000
H    -3.701000000    -2.277000000    -2.111000000
H    -4.613000000    -1.617000000    -1.099000000
O     2.652000000    -5.208000000     4.640000000
H     2.559000000    -4.258000000     4.566000000
H     1.965000000    -5.561000000     4.074000000
O     3.869000000     4.753000000    -3.124000000
H     3.037000000     4.723000000    -3.596000000
H     4.153000000     3.840000000    -3.081000000
O     1.384000000     5.061000000    -4.381000000
H     1.002000000     4.275000000    -4.771000000
H     1.793000000     5.519000000    -5.116000000
O    -2.577000000     7.375000000     1.320000000
H    -1.858000000     7.904000000     0.974000000
H    -2.928000000     6.919000000     0.555000000
O     5.362000000    -2.249000000     0.464000000
H     5.706000000    -2.578000000     1.295000000
H     4.414000000    -2.358000000     0.538000000
O    -0.771000000    -5.401000000     4.453000000
H    -1.502000000    -5.212000000     3.865000000
H    -0.089000000    -4.781000000     4.194000000
O    -3.613000000     4.713000000     1.768000000
H    -3.879000000     5.520000000     2.208000000
H    -2.670000000     4.812000000     1.635000000
O     4.919000000    -5.567000000    -2.297000000
H     4.300000000    -5.791000000    -2.993000000
H     4.368000000    -5.259000000    -1.578000000
O    -1.920000000    -2.158000000    -2.499000000
H    -1.001000000    -2.388000000    -2.361000000
H    -1.973000000    -1.930000000    -3.427000000
O     6.851000000    -4.130000000    -0.950000000
H     6.294000000    -4.478000000    -1.645000000
H     6.276000000    -3.554000000    -0.447000000
O    -4.523000000     0.589000000    -1.347000000
H    -4.301000000     1.331000000    -0.785000000
H    -5.480000000     0.596000000    -1.385000000
O    -0.717000000     4.414000000     2.934000000
H     0.075000000     4.810000000     2.570000000
H    -0.884000000     4.909000000     3.737000000
O     5.229000000    -0.228000000    -3.322000000
H     4.970000000    -1.088000000    -3.655000000
H     5.650000000     0.200000000    -4.068000000
O     3.020000000    -0.475000000     4.523000000
H     3.284000000    -0.394000000     3.606000000
H     3.591000000    -1.156000000     4.877000000
O     4.463000000     2.531000000     0.499000000
H     5.237000000     2.966000000     0.858000000
H     4.359000000     1.745000000     1.035000000
O    -1.928000000    -4.989000000     0.316000000
H    -1.503000000    -4.189000000     0.007000000
H    -2.864000000    -4.819000000     0.212000000
O    -3.329000000    -4.245000000     3.589000000
H    -3.065000000    -3.504000000     4.134000000
H    -3.737000000    -3.843000000     2.821000000
O    -3.680000000    -0.378000000    -4.202000000
H    -3.605000000    -0.122000000    -3.283000000
H    -2.779000000    -0.548000000    -4.477000000
O    -3.100000000     2.049000000    -5.908000000
H    -3.558000000     1.242000000    -5.674000000
H    -2.696000000     1.858000000    -6.755000000
O     1.426000000     0.529000000    -5.654000000
H     1.710000000    -0.051000000    -4.947000000
H     1.731000000     0.099000000    -6.453000000
O     6.368000000    -3.276000000     2.724000000
H     7.126000000    -3.840000000     2.571000000
H     5.936000000    -3.657000000     3.488000000
O     4.019000000     2.048000000    -2.320000000
H     3.694000000     1.998000000    -1.421000000
H     4.399000000     1.184000000    -2.485000000
O     0.522000000    -3.365000000     3.451000000
H     0.592000000    -3.249000000     2.504000000
H     0.299000000    -2.495000000     3.783000000
O    -4.875000000     3.505000000    -3.385000000
H    -4.711000000     3.465000000    -2.443000000
H    -4.649000000     2.631000000    -3.705000000
O    -4.738000000    -4.536000000     0.125000000
H    -5.653000000    -4.708000000     0.346000000
H    -4.758000000    -3.704000000    -0.348000000
O    -1.750000000     1.964000000     3.765000000
H    -1.478000000     2.855000000     3.544000000
H    -1.065000000     1.407000000     3.397000000
O     3.656000000    -5.341000000     0.261000000
H     3.629000000    -5.949000000     1.000000000
H     3.204000000    -4.559000000     0.577000000
O     4.341000000     0.166000000     2.051000000
H     4.463000000    -0.559000000     1.439000000
H     5.222000000     0.360000000     2.372000000
O    -0.053000000    -0.880000000     4.667000000
H     0.251000000    -0.134000000     4.150000000
H     0.543000000    -0.911000000     5.416000000
O     7.566000000    -0.643000000    -0.187000000
H     6.685000000    -1.016000000    -0.215000000
H     7.601000000    -0.053000000    -0.939000000
O     2.711000000    -8.499000000     2.360000000
H     2.651000000    -9.053000000     1.581000000
H     2.093000000    -7.787000000     2.195000000
O    -2.178000000     5.814000000    -1.057000000
H    -1.273000000     5.566000000    -1.249000000
H    -2.638000000     5.703000000    -1.888000000
