144
-2788.32825
O    -0.844000000    -4.977000000     0.521000000
H    -0.300000000    -4.258000000     0.841000000
H    -0.227000000    -5.576000000     0.101000000
O     5.843000000    -5.900000000     3.586000000
H     5.407000000    -5.754000000     4.426000000
H     5.142000000    -6.182000000     2.998000000
O    -3.623000000     0.456000000     3.823000000
H    -3.702000000     0.011000000     4.667000000
H    -2.738000000     0.247000000     3.524000000
O    -0.175000000    -1.449000000    -2.695000000
H     0.762000000    -1.548000000    -2.528000000
H    -0.542000000    -1.185000000    -1.851000000
O     1.493000000     3.031000000     1.043000000
H     1.926000000     2.828000000     1.872000000
H     1.134000000     2.194000000     0.749000000
O     0.280000000    -6.877000000    -1.035000000
H     0.495000000    -6.895000000    -1.967000000
H    -0.350000000    -7.589000000    -0.921000000
O     1.363000000    -5.723000000     2.822000000
H     0.579000000    -6.136000000     2.459000000
H     1.357000000    -4.837000000     2.459000000
O     0.158000000     4.196000000    -4.816000000
H     0.740000000     3.513000000    -4.482000000
H     0.709000000     4.977000000    -4.866000000
O     2.675000000     5.031000000    -0.565000000
H     2.184000000     4.525000000     0.082000000
H     3.422000000     4.474000000    -0.787000000
O    -0.106000000    -4.026000000    -3.662000000
H    -0.114000000    -3.924000000    -4.614000000
H    -0.285000000    -3.149000000    -3.325000000
O    -5.798000000     0.075000000     1.201000000
H    -5.338000000     0.325000000     2.002000000
H    -6.714000000     0.294000000     1.372000000
O    -4.953000000     2.746000000     3.285000000
H    -4.357000000     3.254000000     3.835000000
H    -4.637000000     1.846000000     3.356000000
O    -6.241000000     3.515000000     0.876000000
H    -5.731000000     3.288000000     1.654000000
H    -5.674000000     4.106000000     0.382000000
O     3.064000000    -0.017000000    -3.519000000
H     2.727000000    -0.135000000    -4.408000000
H     2.967000000    -0.877000000    -3.110000000
O    -0.890000000    -7.126000000     2.499000000
H    -0.660000000    -8.025000000     2.264000000
H    -1.345000000    -6.786000000     1.728000000
O    -4.493000000     4.432000000    -2.395000000
H    -4.038000000     4.725000000    -1.605000000
H    -4.753000000     3.532000000    -2.202000000
O    -0.149000000     6.971000000    -0.905000000
H     0.587000000     6.358000000    -0.898000000
H     0.040000000     7.565000000    -1.631000000
O     3.823000000    -5.854000000    -3.142000000
H     2.977000000    -6.152000000    -3.475000000
H     3.667000000    -5.680000000    -2.213000000
O     2.583000000    -4.297000000     4.760000000
H     3.038000000    -3.605000000     4.281000000
H     2.132000000    -4.800000000     4.083000000
O     5.031000000    -2.409000000    -0.447000000
H     5.025000000    -3.365000000    -0.401000000
H     4.319000000    -2.137000000     0.132000000
O    -4.094000000     3.314000000    -5.508000000
H    -4.235000000     3.345000000    -4.562000000
H    -3.708000000     2.452000000    -5.665000000
O    -0.445000000    -6.004000000     5.148000000
H    -0.387000000    -5.054000000     5.045000000
H    -0.598000000    -6.332000000     4.262000000
O    -4.051000000     5.375000000     0.955000000
H    -3.792000000     6.076000000     0.357000000
H    -3.767000000     5.679000000     1.817000000
O     2.530000000    -2.382000000    -2.418000000
H     3.429000000    -2.342000000    -2.091000000
H     2.114000000    -3.066000000    -1.894000000
O    -2.998000000    -4.635000000    -2.128000000
H    -3.596000000    -4.121000000    -1.585000000
H    -2.141000000    -4.515000000    -1.720000000
O     5.357000000     0.643000000    -1.794000000
H     4.490000000     0.510000000    -2.178000000
H     5.961000000     0.253000000    -2.426000000
O    -5.696000000    -0.735000000    -1.179000000
H    -5.752000000    -0.466000000    -0.263000000
H    -6.408000000    -0.264000000    -1.612000000
O     2.809000000     2.706000000    -3.249000000
H     2.725000000     1.754000000    -3.189000000
H     3.098000000     2.865000000    -4.147000000
O     4.036000000    -1.416000000     5.292000000
H     4.115000000    -2.037000000     4.567000000
H     4.926000000    -1.330000000     5.632000000
O     4.412000000     1.121000000     2.247000000
H     3.800000000     1.499000000     2.879000000
H     5.029000000     1.828000000     2.060000000
O    -4.854000000    -4.667000000     2.324000000
H    -5.628000000    -4.134000000     2.140000000
H    -4.307000000    -4.111000000     2.878000000
O    -3.074000000    -6.236000000     1.043000000
H    -2.492000000    -5.657000000     0.550000000
H    -3.739000000    -5.653000000     1.408000000
O    -3.344000000    -3.167000000     4.000000000
H    -3.243000000    -2.267000000     4.308000000
H    -2.574000000    -3.624000000     4.338000000
O    -4.951000000     1.907000000    -1.204000000
H    -4.625000000     1.018000000    -1.341000000
H    -5.338000000     1.889000000    -0.329000000
O    -1.884000000     4.536000000    -6.569000000
H    -2.565000000     4.062000000    -6.092000000
H    -1.085000000     4.381000000    -6.064000000
O    -0.644000000     0.131000000    -4.912000000
H    -0.574000000    -0.310000000    -4.065000000
H     0.237000000     0.082000000    -5.282000000
O     5.576000000    -5.215000000     0.317000000
H     6.001000000    -5.808000000    -0.302000000
H     6.300000000    -4.820000000     0.804000000
O     4.629000000     3.304000000    -1.211000000
H     4.980000000     2.459000000    -0.930000000
H     4.008000000     3.088000000    -1.905000000
O    -0.578000000    -3.178000000     4.107000000
H    -0.284000000    -3.439000000     3.234000000
H    -0.296000000    -2.267000000     4.192000000
O    -3.322000000     0.871000000    -5.031000000
H    -3.558000000    -0.031000000    -5.247000000
H    -2.420000000     0.814000000    -4.717000000
O    -3.754000000     6.237000000    -4.374000000
H    -4.015000000     5.458000000    -3.884000000
H    -4.489000000     6.842000000    -4.270000000
O    -4.527000000    -3.102000000    -0.420000000
H    -4.700000000    -3.079000000     0.521000000
H    -5.078000000    -2.408000000    -0.782000000
O     2.066000000    -4.768000000    -0.964000000
H     1.491000000    -5.523000000    -0.833000000
H     2.388000000    -4.558000000    -0.088000000
O     4.431000000    -2.971000000     2.889000000
H     3.762000000    -2.907000000     2.208000000
H     5.231000000    -2.656000000     2.469000000
O    -0.569000000    -0.205000000     3.642000000
H    -0.642000000     0.422000000     4.362000000
H     0.307000000    -0.057000000     3.284000000
O     6.727000000     0.847000000     0.510000000
H     6.247000000     0.413000000     1.215000000
H     6.227000000     0.644000000    -0.281000000
O     3.876000000    -7.114000000     2.252000000
H     4.153000000    -7.129000000     1.335000000
H     2.970000000    -6.809000000     2.224000000
O    -0.568000000     4.733000000     2.013000000
H    -0.734000000     4.926000000     1.090000000
H     0.167000000     4.120000000     2.001000000
