144
-2842.17071
O    -2.531000000    -4.283000000    -1.654000000
H    -3.241000000    -4.070000000    -1.048000000
H    -1.736000000    -4.211000000    -1.126000000
O     3.391000000    -3.017000000    -0.880000000
H     3.793000000    -3.816000000    -0.538000000
H     2.451000000    -3.154000000    -0.767000000
O    -1.405000000     0.135000000    -2.849000000
H    -0.971000000    -0.192000000    -3.637000000
H    -0.888000000    -0.219000000    -2.126000000
O    -5.037000000    -3.792000000     4.304000000
H    -4.294000000    -3.243000000     4.053000000
H    -5.567000000    -3.855000000     3.510000000
O    -2.459000000     4.233000000    -3.080000000
H    -2.862000000     3.690000000    -3.757000000
H    -2.988000000     5.030000000    -3.065000000
O     0.692000000    -7.821000000     2.231000000
H    -0.155000000    -8.057000000     1.853000000
H     0.579000000    -6.918000000     2.528000000
O     1.500000000     5.275000000    -2.900000000
H     1.847000000     6.070000000    -3.306000000
H     2.208000000     4.966000000    -2.336000000
O    -1.878000000     5.418000000     1.425000000
H    -1.547000000     5.550000000     0.536000000
H    -1.233000000     5.847000000     1.987000000
O    -4.664000000     1.947000000     1.013000000
H    -4.107000000     2.056000000     0.243000000
H    -4.184000000     2.381000000     1.719000000
O    -3.033000000     1.923000000    -1.397000000
H    -2.890000000     2.576000000    -2.082000000
H    -2.450000000     1.200000000    -1.630000000
O    -1.230000000    -7.633000000    -2.361000000
H    -0.632000000    -7.027000000    -1.923000000
H    -1.677000000    -8.087000000    -1.646000000
O     4.445000000    -5.336000000     0.191000000
H     5.288000000    -5.339000000     0.645000000
H     4.000000000    -6.123000000     0.507000000
O     0.286000000    -4.919000000     2.786000000
H    -0.438000000    -4.797000000     3.400000000
H    -0.040000000    -4.567000000     1.958000000
O     5.114000000     1.701000000     1.648000000
H     5.320000000     2.420000000     1.051000000
H     4.237000000     1.903000000     1.974000000
O    -0.114000000     4.037000000    -4.861000000
H    -0.255000000     4.081000000    -3.916000000
H     0.829000000     4.162000000    -4.969000000
O    -2.892000000    -6.989000000     0.946000000
H    -2.704000000    -6.060000000     1.075000000
H    -3.203000000    -7.292000000     1.799000000
O     3.506000000     4.184000000    -1.477000000
H     3.104000000     4.204000000    -0.608000000
H     4.324000000     3.704000000    -1.351000000
O     5.724000000    -1.428000000    -0.231000000
H     4.923000000    -1.940000000    -0.345000000
H     5.586000000    -0.947000000     0.586000000
O     2.818000000     4.263000000     1.471000000
H     2.979000000     5.088000000     1.930000000
H     2.529000000     3.661000000     2.156000000
O     1.187000000     5.035000000     5.004000000
H     1.389000000     5.719000000     5.642000000
H     0.887000000     5.512000000     4.230000000
O    -5.975000000    -3.652000000     1.783000000
H    -6.398000000    -2.856000000     1.459000000
H    -5.089000000    -3.615000000     1.423000000
O    -2.981000000    -4.283000000     1.686000000
H    -2.181000000    -4.038000000     1.221000000
H    -2.883000000    -3.893000000     2.554000000
O     4.336000000    -0.785000000    -2.882000000
H     4.838000000    -0.451000000    -2.139000000
H     3.796000000    -1.483000000    -2.512000000
O    -2.743000000     3.103000000     3.038000000
H    -2.968000000     3.645000000     3.794000000
H    -2.335000000     3.710000000     2.420000000
O    -1.009000000    -5.842000000    -4.305000000
H    -1.963000000    -5.821000000    -4.385000000
H    -0.837000000    -6.540000000    -3.673000000
O     2.556000000    -3.186000000     2.530000000
H     1.809000000    -3.637000000     2.924000000
H     2.974000000    -3.851000000     1.982000000
O     0.009000000    -1.141000000    -4.898000000
H     0.656000000    -1.811000000    -4.676000000
H    -0.126000000    -1.242000000    -5.840000000
O    -1.650000000    -0.816000000     6.517000000
H    -1.508000000    -0.054000000     7.080000000
H    -1.934000000    -0.446000000     5.681000000
O     5.763000000    -1.414000000    -5.217000000
H     5.533000000    -1.747000000    -6.085000000
H     4.921000000    -1.256000000    -4.790000000
O    -2.608000000     0.513000000     4.301000000
H    -2.260000000     1.318000000     3.915000000
H    -3.504000000     0.457000000     3.969000000
O    -4.854000000    -0.020000000     2.702000000
H    -4.454000000    -0.742000000     2.216000000
H    -5.077000000     0.626000000     2.032000000
O    -5.263000000     0.275000000    -1.811000000
H    -5.297000000     0.121000000    -2.755000000
H    -4.665000000     1.016000000    -1.711000000
O    -2.655000000    -2.667000000     3.872000000
H    -2.239000000    -1.806000000     3.844000000
H    -2.146000000    -3.158000000     4.518000000
O     2.515000000    -7.098000000    -3.839000000
H     3.201000000    -7.074000000    -4.506000000
H     2.189000000    -6.199000000    -3.798000000
O     0.892000000    -6.409000000    -1.359000000
H     1.014000000    -5.504000000    -1.074000000
H     1.683000000    -6.611000000    -1.859000000
O     0.564000000     7.693000000     0.579000000
H     1.295000000     8.178000000     0.196000000
H     0.217000000     7.172000000    -0.145000000
O     2.177000000    -3.230000000    -6.033000000
H     1.863000000    -3.773000000    -6.756000000
H     1.609000000    -3.458000000    -5.298000000
O     3.929000000     1.341000000    -4.589000000
H     3.470000000     0.883000000    -5.293000000
H     3.925000000     0.723000000    -3.858000000
O     0.905000000    -4.170000000    -3.531000000
H     0.147000000    -4.743000000    -3.651000000
H     0.939000000    -4.013000000    -2.587000000
O     1.120000000     2.367000000     5.325000000
H     0.425000000     2.387000000     5.983000000
H     1.077000000     3.226000000     4.905000000
O    -3.245000000    -2.111000000    -3.130000000
H    -2.455000000    -1.570000000    -3.122000000
H    -3.011000000    -2.884000000    -2.617000000
O    -4.465000000     6.333000000     2.099000000
H    -4.647000000     7.242000000     1.862000000
H    -3.677000000     6.110000000     1.605000000
O     2.865000000     4.175000000    -5.386000000
H     3.144000000     3.352000000    -4.984000000
H     2.800000000     3.975000000    -6.320000000
O    -4.482000000    -1.757000000     0.028000000
H    -4.920000000    -2.391000000    -0.541000000
H    -4.289000000    -1.015000000    -0.545000000
O     3.055000000     1.911000000     3.360000000
H     2.423000000     2.155000000     4.036000000
H     2.730000000     1.078000000     3.018000000
O     2.562000000    -0.319000000     1.987000000
H     2.388000000    -0.054000000     1.083000000
H     2.365000000    -1.255000000     2.004000000
O    -0.673000000     5.772000000    -1.347000000
H    -1.325000000     5.127000000    -1.621000000
H     0.139000000     5.484000000    -1.763000000
O     0.052000000     6.553000000     3.123000000
H    -0.413000000     7.279000000     3.538000000
H     0.565000000     6.963000000     2.426000000
