144
-2821.03407
O    -2.392000000    -1.667000000     2.617000000
H    -3.269000000    -1.299000000     2.512000000
H    -1.802000000    -0.953000000     2.373000000
O    -1.368000000     0.998000000    -3.876000000
H    -0.919000000     1.829000000    -3.723000000
H    -0.674000000     0.396000000    -4.146000000
O    -3.963000000     0.934000000    -2.334000000
H    -4.289000000     0.082000000    -2.044000000
H    -3.133000000     0.738000000    -2.769000000
O    -1.791000000    -3.762000000    -4.539000000
H    -2.115000000    -2.865000000    -4.467000000
H    -0.870000000    -3.666000000    -4.783000000
O     5.878000000    -0.344000000    -3.686000000
H     6.007000000    -1.263000000    -3.923000000
H     6.756000000     0.037000000    -3.718000000
O     2.866000000    -0.216000000    -4.053000000
H     3.051000000    -0.767000000    -3.292000000
H     3.728000000     0.027000000    -4.389000000
O    -2.014000000     3.277000000     3.354000000
H    -1.481000000     4.068000000     3.433000000
H    -2.880000000     3.538000000     3.667000000
O    -3.332000000    -4.112000000     0.993000000
H    -3.218000000    -3.824000000     1.898000000
H    -2.489000000    -3.933000000     0.576000000
O     2.406000000    -1.543000000     3.648000000
H     2.061000000    -2.420000000     3.813000000
H     1.824000000    -0.961000000     4.137000000
O     3.146000000    -5.547000000    -0.234000000
H     2.702000000    -6.227000000     0.273000000
H     3.582000000    -5.005000000     0.422000000
O    -4.107000000    -2.474000000    -2.130000000
H    -3.304000000    -2.881000000    -1.805000000
H    -4.809000000    -2.914000000    -1.650000000
O     5.999000000    -3.158000000    -4.311000000
H     6.812000000    -3.574000000    -4.025000000
H     6.088000000    -3.086000000    -5.261000000
O     2.941000000     4.349000000     4.142000000
H     3.179000000     3.421000000     4.136000000
H     2.765000000     4.556000000     3.224000000
O     0.499000000    -4.253000000    -1.217000000
H     1.096000000    -4.190000000    -1.962000000
H     0.982000000    -3.863000000    -0.489000000
O    -0.559000000    -3.688000000     1.994000000
H    -1.331000000    -3.177000000     2.235000000
H     0.024000000    -3.611000000     2.749000000
O     3.623000000    -3.577000000     1.211000000
H     3.328000000    -3.014000000     1.927000000
H     3.918000000    -2.968000000     0.534000000
O    -2.985000000    -1.501000000     5.487000000
H    -3.930000000    -1.515000000     5.334000000
H    -2.600000000    -1.487000000     4.611000000
O    -2.014000000    -4.253000000    -1.571000000
H    -1.967000000    -4.345000000    -2.523000000
H    -1.108000000    -4.110000000    -1.299000000
O    -0.168000000     5.614000000     3.163000000
H    -0.258000000     6.470000000     2.744000000
H     0.228000000     5.059000000     2.491000000
O     3.089000000    -3.042000000    -5.710000000
H     3.474000000    -2.285000000    -6.151000000
H     3.578000000    -3.792000000    -6.050000000
O    -5.590000000     2.271000000     1.163000000
H    -4.800000000     2.664000000     0.790000000
H    -5.681000000     2.686000000     2.021000000
O    -4.005000000     3.709000000    -2.241000000
H    -3.694000000     2.824000000    -2.050000000
H    -3.668000000     4.242000000    -1.520000000
O     2.184000000    -6.194000000    -2.827000000
H     2.239000000    -6.303000000    -1.878000000
H     2.037000000    -5.256000000    -2.951000000
O    -6.903000000    -2.251000000     0.942000000
H    -6.457000000    -2.942000000     0.453000000
H    -6.915000000    -1.504000000     0.344000000
O    -2.863000000    -1.260000000    -5.118000000
H    -2.765000000    -1.084000000    -6.054000000
H    -2.741000000    -0.408000000    -4.699000000
O     0.961000000    -0.219000000     5.710000000
H     0.730000000    -0.490000000     6.599000000
H     0.141000000     0.106000000     5.339000000
O    -6.571000000     2.079000000    -2.470000000
H    -6.629000000     1.687000000    -3.341000000
H    -5.674000000     2.410000000    -2.416000000
O    -1.384000000     1.065000000     5.126000000
H    -2.188000000     0.745000000     5.535000000
H    -1.611000000     1.937000000     4.801000000
O     5.733000000     0.400000000    -0.951000000
H     5.878000000     0.016000000    -1.816000000
H     5.094000000    -0.179000000    -0.536000000
O    -0.645000000     4.494000000     0.277000000
H    -0.191000000     5.303000000     0.042000000
H    -0.149000000     3.804000000    -0.163000000
O     2.609000000     4.232000000     1.553000000
H     2.109000000     3.653000000     0.978000000
H     3.512000000     3.925000000     1.476000000
O    -3.313000000     4.890000000     0.374000000
H    -3.625000000     5.029000000     1.269000000
H    -2.363000000     4.817000000     0.461000000
O     0.578000000    -0.698000000    -5.503000000
H     1.360000000    -0.639000000    -4.954000000
H     0.288000000    -1.606000000    -5.410000000
O     5.147000000     2.784000000     0.528000000
H     5.675000000     2.653000000     1.315000000
H     5.347000000     2.027000000    -0.023000000
O     4.739000000    -0.586000000     2.553000000
H     4.425000000    -0.687000000     1.654000000
H     4.238000000    -1.228000000     3.055000000
O    -4.619000000     0.023000000     2.685000000
H    -4.686000000     0.755000000     2.072000000
H    -4.619000000     0.433000000     3.550000000
O     2.172000000    -3.468000000    -3.263000000
H     2.386000000    -3.168000000    -4.146000000
H     2.587000000    -2.827000000    -2.685000000
O     6.764000000    -1.662000000     3.780000000
H     6.059000000    -1.325000000     3.227000000
H     7.413000000    -0.959000000     3.797000000
O     8.311000000     1.559000000    -0.015000000
H     8.715000000     1.287000000    -0.839000000
H     7.371000000     1.457000000    -0.164000000
O     6.207000000    -4.609000000     0.573000000
H     5.960000000    -3.843000000     0.055000000
H     6.135000000    -5.343000000    -0.037000000
O     5.385000000    -2.663000000    -1.339000000
H     5.373000000    -3.202000000    -2.129000000
H     4.612000000    -2.103000000    -1.419000000
O    -4.637000000     1.235000000     5.175000000
H    -5.515000000     0.911000000     5.378000000
H    -4.713000000     2.187000000     5.243000000
O     3.756000000     1.604000000     4.127000000
H     4.083000000     1.005000000     3.456000000
H     3.510000000     1.035000000     4.857000000
O     1.111000000     2.696000000    -0.245000000
H     1.633000000     2.243000000    -0.907000000
H     0.725000000     1.994000000     0.278000000
O    -5.457000000     3.592000000     3.499000000
H    -6.054000000     3.823000000     4.210000000
H    -4.995000000     4.406000000     3.300000000
O    -6.969000000     0.207000000    -0.212000000
H    -6.555000000     0.816000000     0.399000000
H    -7.014000000     0.690000000    -1.037000000
O     8.267000000    -2.067000000    -0.461000000
H     7.434000000    -2.352000000    -0.838000000
H     8.019000000    -1.540000000     0.298000000
O     3.369000000     2.573000000    -1.899000000
H     3.511000000     3.478000000    -2.175000000
H     3.857000000     2.492000000    -1.080000000
