144
-2814.76851
O    -2.926000000    -5.674000000    -4.802000000
H    -3.006000000    -6.315000000    -4.096000000
H    -2.088000000    -5.240000000    -4.638000000
O    -3.793000000    -1.828000000    -1.785000000
H    -4.570000000    -2.385000000    -1.755000000
H    -3.073000000    -2.408000000    -1.537000000
O    -3.241000000    -5.464000000     0.050000000
H    -3.481000000    -5.464000000     0.977000000
H    -3.014000000    -4.553000000    -0.138000000
O     3.161000000    -5.840000000    -2.346000000
H     2.822000000    -5.697000000    -1.462000000
H     2.513000000    -6.409000000    -2.762000000
O     5.231000000     1.216000000    -1.045000000
H     4.714000000     0.422000000    -1.180000000
H     5.208000000     1.662000000    -1.892000000
O     1.535000000     1.135000000    -4.267000000
H     2.205000000     1.650000000    -4.717000000
H     2.015000000     0.657000000    -3.590000000
O     0.550000000    -6.666000000    -3.804000000
H    -0.017000000    -7.322000000    -4.210000000
H     0.724000000    -6.035000000    -4.502000000
O    -4.285000000     1.523000000     3.281000000
H    -4.583000000     1.810000000     2.418000000
H    -3.542000000     2.092000000     3.479000000
O    -3.990000000     3.795000000    -2.309000000
H    -3.942000000     2.865000000    -2.086000000
H    -3.103000000     4.123000000    -2.162000000
O     4.348000000     4.699000000    -3.126000000
H     4.794000000     3.881000000    -3.343000000
H     4.350000000     4.726000000    -2.169000000
O     4.937000000     3.432000000     2.286000000
H     4.760000000     2.496000000     2.196000000
H     5.510000000     3.496000000     3.050000000
O    -0.548000000    -0.097000000     2.953000000
H    -0.641000000    -0.434000000     2.061000000
H    -0.404000000     0.843000000     2.839000000
O    -6.046000000    -3.280000000    -0.910000000
H    -6.440000000    -2.798000000    -0.182000000
H    -6.156000000    -4.201000000    -0.675000000
O    -5.101000000     4.962000000     0.098000000
H    -4.658000000     4.779000000    -0.731000000
H    -5.751000000     5.631000000    -0.121000000
O    -4.666000000     0.658000000    -1.611000000
H    -4.931000000     0.606000000    -2.529000000
H    -4.335000000    -0.217000000    -1.408000000
O    -3.345000000     4.648000000     2.176000000
H    -2.910000000     5.488000000     2.024000000
H    -4.098000000     4.658000000     1.585000000
O     2.755000000    -4.420000000     0.036000000
H     3.195000000    -4.309000000     0.879000000
H     1.862000000    -4.110000000     0.190000000
O     2.946000000    -0.992000000    -2.782000000
H     2.922000000    -1.526000000    -1.989000000
H     3.878000000    -0.834000000    -2.936000000
O    -0.354000000    -6.161000000     0.515000000
H    -1.286000000    -6.284000000     0.333000000
H    -0.167000000    -5.272000000     0.212000000
O     2.616000000     4.783000000     3.073000000
H     2.802000000     5.142000000     3.940000000
H     3.476000000     4.561000000     2.716000000
O     1.473000000     5.661000000    -3.216000000
H     1.071000000     4.800000000    -3.103000000
H     2.394000000     5.474000000    -3.401000000
O    -2.877000000    -3.244000000     2.785000000
H    -3.427000000    -2.504000000     3.043000000
H    -2.715000000    -3.107000000     1.851000000
O     4.778000000     4.950000000    -0.148000000
H     4.994000000     4.328000000     0.547000000
H     5.475000000     5.605000000    -0.109000000
O    -1.799000000     5.252000000    -2.630000000
H    -1.445000000     5.829000000    -1.954000000
H    -1.032000000     4.811000000    -2.995000000
O     1.555000000     6.102000000     0.578000000
H     0.863000000     5.483000000     0.348000000
H     1.935000000     5.749000000     1.383000000
O    -5.501000000    -4.784000000    -3.811000000
H    -5.190000000    -3.884000000    -3.715000000
H    -4.763000000    -5.251000000    -4.204000000
O    -3.188000000    -6.798000000    -2.438000000
H    -3.621000000    -7.535000000    -2.006000000
H    -3.032000000    -6.167000000    -1.736000000
O    -1.536000000     7.157000000    -0.334000000
H    -2.249000000     7.793000000    -0.378000000
H    -1.255000000     7.174000000     0.581000000
O    -0.488000000    -4.265000000    -2.993000000
H     0.051000000    -5.029000000    -3.198000000
H    -0.188000000    -3.984000000    -2.129000000
O     2.097000000     0.117000000     5.168000000
H     1.658000000     0.456000000     4.389000000
H     2.957000000     0.538000000     5.161000000
O     1.802000000    -1.825000000     2.612000000
H     0.967000000    -1.580000000     3.010000000
H     1.778000000    -2.781000000     2.573000000
O    -4.724000000    -1.376000000     4.045000000
H    -5.677000000    -1.466000000     4.068000000
H    -4.570000000    -0.589000000     3.522000000
O     0.450000000     3.205000000    -3.046000000
H     0.885000000     2.517000000    -3.551000000
H     0.461000000     2.883000000    -2.144000000
O    -2.113000000    -0.767000000     5.122000000
H    -2.842000000    -1.109000000     4.604000000
H    -1.557000000    -0.317000000     4.485000000
O    -4.098000000    -2.385000000    -4.542000000
H    -3.887000000    -1.925000000    -3.730000000
H    -3.247000000    -2.578000000    -4.936000000
O     1.631000000    -1.887000000    -5.228000000
H     0.760000000    -1.926000000    -4.834000000
H     2.175000000    -1.462000000    -4.565000000
O     4.582000000    -1.044000000     2.635000000
H     3.651000000    -1.129000000     2.837000000
H     4.871000000    -0.290000000     3.148000000
O     4.718000000    -3.608000000     1.755000000
H     4.704000000    -2.740000000     2.158000000
H     5.592000000    -3.680000000     1.372000000
O     5.320000000    -3.887000000    -2.263000000
H     4.794000000    -4.627000000    -1.962000000
H     5.449000000    -4.050000000    -3.198000000
O    -2.216000000     2.973000000     4.103000000
H    -2.608000000     3.460000000     3.379000000
H    -1.294000000     2.885000000     3.862000000
O    -1.165000000    -2.492000000    -4.862000000
H    -0.923000000    -3.132000000    -4.193000000
H    -1.303000000    -3.013000000    -5.653000000
O     0.559000000    -8.051000000    -1.568000000
H     0.582000000    -7.534000000    -2.373000000
H     0.279000000    -7.431000000    -0.894000000
O    -5.075000000     2.188000000     0.706000000
H    -5.319000000     3.106000000     0.586000000
H    -4.957000000     1.852000000    -0.182000000
O     0.945000000     2.822000000     3.789000000
H     1.166000000     3.108000000     4.676000000
H     1.334000000     3.485000000     3.220000000
O     4.469000000    -1.696000000    -0.144000000
H     4.128000000    -2.591000000    -0.161000000
H     4.808000000    -1.585000000     0.744000000
O    -7.541000000     0.027000000    -0.474000000
H    -7.411000000    -0.629000000     0.210000000
H    -6.665000000     0.179000000    -0.830000000
O     0.345000000    -7.890000000     2.483000000
H     1.291000000    -7.749000000     2.448000000
H    -0.020000000    -7.217000000     1.907000000
O     1.193000000    -4.355000000     2.666000000
H     0.361000000    -4.776000000     2.450000000
H     1.857000000    -5.004000000     2.432000000
