144
-2817.17933
O    -2.104000000     3.562000000     5.207000000
H    -2.123000000     4.510000000     5.338000000
H    -2.440000000     3.200000000     6.026000000
O    -4.387000000     2.177000000     3.305000000
H    -3.818000000     2.468000000     4.018000000
H    -5.265000000     2.447000000     3.573000000
O     1.574000000    -4.881000000    -2.652000000
H     1.371000000    -4.025000000    -3.030000000
H     0.755000000    -5.164000000    -2.246000000
O     1.914000000     5.487000000    -2.683000000
H     1.987000000     5.722000000    -1.758000000
H     1.228000000     4.819000000    -2.706000000
O     2.023000000    -2.902000000     0.660000000
H     2.521000000    -3.161000000     1.436000000
H     1.608000000    -3.712000000     0.362000000
O     4.286000000    -4.151000000    -3.152000000
H     4.453000000    -4.943000000    -3.663000000
H     3.411000000    -4.282000000    -2.787000000
O    -1.781000000     2.440000000    -1.634000000
H    -1.237000000     3.066000000    -2.112000000
H    -1.164000000     1.788000000    -1.304000000
O    -2.983000000    -1.539000000    -4.082000000
H    -2.302000000    -1.073000000    -4.567000000
H    -2.507000000    -2.186000000    -3.562000000
O     1.340000000     7.143000000     0.519000000
H     0.814000000     6.730000000     1.203000000
H     2.239000000     7.087000000     0.842000000
O     0.720000000     1.492000000     7.061000000
H     0.299000000     1.499000000     6.201000000
H     0.063000000     1.114000000     7.646000000
O     3.516000000    -1.047000000    -0.731000000
H     3.171000000    -1.771000000    -0.208000000
H     2.831000000    -0.379000000    -0.697000000
O     1.817000000     0.951000000    -5.420000000
H     2.295000000     0.433000000    -6.068000000
H     2.343000000     0.881000000    -4.623000000
O    -0.282000000     3.929000000    -3.266000000
H    -0.214000000     3.726000000    -4.199000000
H    -0.884000000     4.671000000    -3.225000000
O    -2.235000000     1.663000000    -4.426000000
H    -2.158000000     1.794000000    -3.481000000
H    -1.493000000     1.102000000    -4.651000000
O     3.423000000     0.689000000    -2.988000000
H     3.633000000     0.113000000    -2.253000000
H     4.270000000     1.036000000    -3.269000000
O    -1.100000000    -5.470000000    -6.168000000
H    -0.211000000    -5.264000000    -5.881000000
H    -1.339000000    -6.251000000    -5.669000000
O     5.163000000     5.045000000    -0.661000000
H     5.465000000     4.136000000    -0.681000000
H     5.245000000     5.344000000    -1.567000000
O     2.269000000    -1.902000000     5.095000000
H     2.564000000    -1.264000000     4.446000000
H     2.079000000    -2.691000000     4.588000000
O    -4.093000000     5.487000000     2.376000000
H    -4.366000000     5.823000000     3.230000000
H    -3.704000000     4.634000000     2.567000000
O    -1.757000000    -2.319000000     4.559000000
H    -2.319000000    -1.622000000     4.221000000
H    -2.367000000    -2.991000000     4.864000000
O    -5.907000000    -2.904000000     2.556000000
H    -5.135000000    -3.233000000     2.097000000
H    -5.767000000    -3.153000000     3.470000000
O     0.466000000     3.180000000    -5.805000000
H     0.116000000     3.036000000    -6.684000000
H     1.064000000     2.446000000    -5.662000000
O    -4.318000000    -0.672000000    -1.564000000
H    -4.367000000     0.284000000    -1.578000000
H    -3.962000000    -0.905000000    -2.422000000
O    -3.247000000    -0.384000000     3.203000000
H    -3.574000000    -0.793000000     2.402000000
H    -3.731000000     0.440000000     3.266000000
O    -0.457000000    -0.322000000    -5.627000000
H    -0.709000000    -0.529000000    -6.526000000
H     0.420000000     0.055000000    -5.705000000
O     2.840000000    -0.561000000     2.439000000
H     2.219000000    -1.009000000     1.865000000
H     3.668000000    -1.021000000     2.302000000
O    -0.105000000    -7.321000000    -1.340000000
H    -0.334000000    -7.172000000    -0.423000000
H    -0.672000000    -6.724000000    -1.828000000
O    -4.291000000     2.114000000    -1.398000000
H    -3.338000000     2.199000000    -1.431000000
H    -4.554000000     2.648000000    -0.648000000
O     1.043000000     5.229000000     5.437000000
H     1.464000000     4.733000000     6.139000000
H     0.495000000     5.870000000     5.891000000
O     0.996000000    -2.488000000    -3.959000000
H     0.161000000    -2.633000000    -3.514000000
H     0.902000000    -1.629000000    -4.371000000
O    -4.008000000    -1.712000000     0.901000000
H    -3.415000000    -2.462000000     0.843000000
H    -4.025000000    -1.350000000     0.015000000
O     0.866000000     5.401000000     2.831000000
H     0.555000000     4.519000000     2.631000000
H     1.133000000     5.359000000     3.749000000
O     5.690000000     1.884000000     0.243000000
H     5.385000000     1.238000000     0.880000000
H     5.967000000     1.363000000    -0.511000000
O     0.037000000    -1.492000000     6.892000000
H    -0.746000000    -1.593000000     6.351000000
H     0.766000000    -1.639000000     6.288000000
O    -0.464000000    -4.369000000     3.308000000
H    -0.722000000    -3.514000000     3.654000000
H     0.004000000    -4.788000000     4.030000000
O     2.986000000    -5.761000000    -0.487000000
H     2.324000000    -6.404000000    -0.233000000
H     2.653000000    -5.384000000    -1.302000000
O    -0.657000000     1.306000000     4.820000000
H    -1.357000000     0.735000000     4.501000000
H    -0.993000000     2.193000000     4.688000000
O    -0.608000000     8.008000000     3.294000000
H    -0.393000000     7.075000000     3.322000000
H    -0.114000000     8.389000000     4.020000000
O     5.997000000    -0.677000000    -1.346000000
H     6.376000000    -1.555000000    -1.394000000
H     5.104000000    -0.819000000    -1.030000000
O     4.035000000     6.518000000     1.395000000
H     4.356000000     5.880000000     0.756000000
H     4.742000000     6.590000000     2.036000000
O    -4.225000000    -5.015000000    -6.379000000
H    -3.391000000    -4.630000000    -6.107000000
H    -4.372000000    -4.669000000    -7.259000000
O    -3.734000000    -5.005000000    -0.554000000
H    -2.982000000    -4.413000000    -0.543000000
H    -4.059000000    -4.963000000    -1.453000000
O    -4.018000000    -4.383000000    -3.533000000
H    -4.422000000    -4.890000000    -4.238000000
H    -4.389000000    -3.505000000    -3.627000000
O    -4.540000000    -7.214000000     1.519000000
H    -4.492000000    -6.567000000     0.815000000
H    -3.745000000    -7.738000000     1.418000000
O     6.179000000     3.613000000     2.559000000
H     5.579000000     3.233000000     1.917000000
H     6.753000000     4.180000000     2.043000000
O     1.683000000    -4.199000000    -5.916000000
H     2.393000000    -3.787000000    -6.408000000
H     1.545000000    -3.622000000    -5.165000000
O    -0.349000000    -5.318000000     0.671000000
H    -0.731000000    -5.121000000     1.526000000
H    -0.668000000    -4.619000000     0.100000000
O    -1.351000000    -5.478000000    -3.000000000
H    -2.281000000    -5.582000000    -3.202000000
H    -1.227000000    -4.532000000    -2.921000000
