144
-2814.52938
O     6.445000000     3.008000000     0.992000000
H     6.509000000     2.930000000     0.040000000
H     7.196000000     3.549000000     1.238000000
O    -0.988000000     4.116000000    -0.247000000
H    -1.753000000     3.697000000     0.148000000
H    -0.604000000     3.438000000    -0.803000000
O    -1.274000000    -0.609000000    -5.237000000
H    -1.670000000    -1.297000000    -5.773000000
H    -1.174000000    -1.007000000    -4.372000000
O     4.216000000    -0.255000000     4.305000000
H     4.386000000     0.667000000     4.115000000
H     4.775000000    -0.734000000     3.693000000
O     1.069000000    -3.833000000    -2.968000000
H     0.862000000    -4.126000000    -2.081000000
H     0.457000000    -3.116000000    -3.132000000
O     4.467000000    -0.607000000    -3.692000000
H     4.055000000    -0.035000000    -4.340000000
H     3.901000000    -1.378000000    -3.658000000
O    -1.159000000     2.113000000    -2.354000000
H    -2.065000000     2.402000000    -2.250000000
H    -1.159000000     1.208000000    -2.041000000
O    -6.546000000    -3.869000000    -3.808000000
H    -5.940000000    -3.149000000    -3.983000000
H    -6.052000000    -4.468000000    -3.249000000
O     3.548000000    -1.887000000     0.104000000
H     2.695000000    -1.491000000    -0.071000000
H     4.129000000    -1.144000000     0.265000000
O     0.937000000     5.759000000     0.750000000
H     0.192000000     5.212000000     0.500000000
H     0.673000000     6.160000000     1.578000000
O     2.183000000     4.077000000    -1.481000000
H     2.662000000     3.668000000    -0.761000000
H     2.311000000     5.017000000    -1.350000000
O     2.947000000     1.029000000    -5.141000000
H     3.240000000     1.758000000    -5.688000000
H     2.426000000     1.441000000    -4.452000000
O     0.914000000    -0.883000000     4.246000000
H     1.837000000    -0.656000000     4.131000000
H     0.928000000    -1.690000000     4.760000000
O     1.273000000     2.365000000    -3.259000000
H     1.566000000     3.028000000    -2.634000000
H     0.407000000     2.105000000    -2.944000000
O     1.253000000    -5.621000000    -5.290000000
H     1.365000000    -4.977000000    -5.990000000
H     1.335000000    -5.114000000    -4.482000000
O    -0.130000000     1.209000000     5.788000000
H    -0.137000000     0.745000000     6.625000000
H     0.209000000     0.569000000     5.162000000
O    -4.326000000    -2.657000000     4.071000000
H    -3.701000000    -2.068000000     4.494000000
H    -4.782000000    -3.083000000     4.797000000
O    -5.461000000    -0.811000000     2.016000000
H    -5.010000000    -1.307000000     2.699000000
H    -6.230000000    -1.341000000     1.804000000
O    -2.106000000    -7.297000000    -1.757000000
H    -2.377000000    -8.197000000    -1.578000000
H    -2.877000000    -6.768000000    -1.550000000
O     4.945000000     0.518000000     0.915000000
H     5.743000000     1.032000000     0.791000000
H     4.494000000     0.948000000     1.643000000
O    -0.184000000    -5.513000000    -1.126000000
H    -0.737000000    -6.163000000    -1.559000000
H    -0.793000000    -4.980000000    -0.616000000
O     6.594000000     0.021000000    -1.961000000
H     6.445000000     0.851000000    -1.508000000
H     5.782000000    -0.139000000    -2.441000000
O    -4.795000000     0.865000000     0.047000000
H    -5.211000000     0.607000000    -0.776000000
H    -4.976000000     0.139000000     0.644000000
O    -2.905000000     1.793000000    -5.919000000
H    -3.616000000     1.162000000    -5.812000000
H    -2.132000000     1.342000000    -5.579000000
O    -2.499000000     4.404000000     3.544000000
H    -1.803000000     5.024000000     3.765000000
H    -2.096000000     3.543000000     3.656000000
O     2.569000000    -3.179000000     2.873000000
H     2.916000000    -2.766000000     2.083000000
H     3.021000000    -4.021000000     2.922000000
O    -4.546000000    -5.647000000    -2.426000000
H    -5.284000000    -6.196000000    -2.691000000
H    -4.271000000    -6.005000000    -1.583000000
O     3.796000000     4.029000000     0.742000000
H     4.543000000     3.519000000     1.054000000
H     3.454000000     4.457000000     1.527000000
O    -4.223000000    -2.361000000    -4.159000000
H    -3.577000000    -2.805000000    -4.709000000
H    -3.799000000    -2.286000000    -3.304000000
O    -2.278000000     1.595000000     4.092000000
H    -2.462000000     0.661000000     3.992000000
H    -1.528000000     1.629000000     4.686000000
O     2.200000000     6.997000000    -1.212000000
H     1.518000000     6.592000000    -0.677000000
H     2.748000000     7.469000000    -0.585000000
O    -1.704000000    -3.141000000    -6.147000000
H    -1.331000000    -3.682000000    -6.843000000
H    -1.655000000    -3.690000000    -5.365000000
O     4.993000000     2.138000000     3.206000000
H     5.654000000     2.446000000     2.587000000
H     4.944000000     2.828000000     3.868000000
O     3.508000000    -4.753000000    -3.647000000
H     2.798000000    -4.129000000    -3.496000000
H     3.515000000    -5.302000000    -2.863000000
O     0.895000000     3.295000000     7.229000000
H     0.090000000     3.311000000     7.746000000
H     0.673000000     2.774000000     6.457000000
O    -3.240000000     2.829000000     0.883000000
H    -3.809000000     2.071000000     0.749000000
H    -3.050000000     2.823000000     1.821000000
O    -2.622000000    -4.591000000     2.957000000
H    -3.059000000    -3.743000000     3.038000000
H    -3.039000000    -5.140000000     3.621000000
O    -1.221000000     6.796000000    -1.237000000
H    -0.832000000     5.938000000    -1.068000000
H    -1.032000000     7.305000000    -0.448000000
O    -4.950000000    -3.130000000    -0.645000000
H    -4.182000000    -2.665000000    -0.976000000
H    -5.577000000    -2.439000000    -0.435000000
O    -4.978000000     0.215000000    -4.888000000
H    -5.426000000    -0.106000000    -5.670000000
H    -4.642000000    -0.574000000    -4.463000000
O    -2.055000000    -1.174000000     4.561000000
H    -1.174000000    -1.200000000     4.186000000
H    -2.002000000    -1.733000000     5.336000000
O    -5.724000000    -4.747000000     1.361000000
H    -6.577000000    -4.359000000     1.560000000
H    -5.349000000    -4.171000000     0.695000000
O     3.469000000     5.456000000     3.272000000
H     4.111000000     6.166000000     3.270000000
H     3.679000000     4.947000000     4.055000000
O     0.686000000     5.012000000     3.879000000
H     1.486000000     5.462000000     3.610000000
H     0.809000000     4.109000000     3.586000000
O     1.291000000    -1.554000000    -5.620000000
H     0.402000000    -1.211000000    -5.530000000
H     1.854000000    -0.784000000    -5.536000000
O    -1.923000000    -4.069000000     0.178000000
H    -2.447000000    -4.231000000     0.962000000
H    -2.444000000    -3.451000000    -0.335000000
O    -3.756000000     2.951000000    -2.049000000
H    -3.798000000     2.881000000    -1.095000000
H    -4.340000000     2.262000000    -2.366000000
O    -2.272000000    -4.324000000    -3.767000000
H    -2.991000000    -4.533000000    -3.171000000
H    -1.862000000    -3.547000000    -3.386000000
