144
-2827.69100
O    -3.487000000     5.154000000    -2.591000000
H    -3.363000000     4.258000000    -2.276000000
H    -3.755000000     5.646000000    -1.815000000
O    -3.470000000     0.258000000    -2.869000000
H    -3.364000000     0.234000000    -1.918000000
H    -4.179000000    -0.360000000    -3.047000000
O     3.139000000     1.122000000     3.878000000
H     3.474000000     1.426000000     3.034000000
H     3.656000000     0.341000000     4.073000000
O     0.282000000    -6.180000000    -2.717000000
H    -0.624000000    -6.338000000    -2.984000000
H     0.590000000    -5.494000000    -3.309000000
O     4.378000000     1.732000000     1.417000000
H     5.329000000     1.620000000     1.428000000
H     4.250000000     2.680000000     1.375000000
O    -1.252000000     6.872000000    -1.173000000
H    -1.319000000     6.411000000    -2.009000000
H    -1.896000000     6.443000000    -0.611000000
O     0.666000000     2.393000000    -3.634000000
H     0.879000000     3.107000000    -4.236000000
H     1.186000000     2.576000000    -2.852000000
O    -3.313000000     7.369000000     3.237000000
H    -4.033000000     6.977000000     3.731000000
H    -2.761000000     6.628000000     2.989000000
O     3.503000000     0.159000000    -0.812000000
H     3.288000000     0.697000000    -1.574000000
H     3.450000000     0.762000000    -0.070000000
O     6.054000000    -0.851000000    -0.728000000
H     5.156000000    -0.530000000    -0.807000000
H     6.502000000    -0.502000000    -1.497000000
O     2.123000000     5.870000000    -3.302000000
H     2.657000000     5.759000000    -2.516000000
H     2.575000000     5.358000000    -3.973000000
O    -1.182000000    -1.314000000     4.931000000
H    -1.159000000    -1.350000000     5.888000000
H    -0.860000000    -0.438000000     4.717000000
O    -0.601000000    -5.110000000     5.047000000
H    -1.288000000    -5.191000000     4.386000000
H    -0.141000000    -4.303000000     4.817000000
O     0.268000000    -4.263000000    -4.957000000
H     0.123000000    -3.495000000    -4.404000000
H     1.107000000    -4.094000000    -5.387000000
O     3.982000000     4.380000000     1.302000000
H     3.703000000     5.175000000     1.756000000
H     4.042000000     4.639000000     0.382000000
O     5.058000000    -4.339000000    -3.701000000
H     4.385000000    -3.785000000    -3.306000000
H     5.389000000    -3.827000000    -4.438000000
O     3.320000000    -0.492000000    -5.968000000
H     2.482000000    -0.507000000    -5.506000000
H     3.144000000     0.003000000    -6.768000000
O     0.787000000     0.076000000    -5.160000000
H     0.508000000    -0.623000000    -4.567000000
H     0.738000000     0.872000000    -4.631000000
O    -3.645000000     1.083000000     4.956000000
H    -3.905000000     1.939000000     5.296000000
H    -2.706000000     1.029000000     5.133000000
O    -0.227000000     1.318000000     5.446000000
H     0.367000000     1.901000000     4.974000000
H    -0.361000000     1.745000000     6.292000000
O     4.194000000     5.172000000    -1.391000000
H     5.100000000     5.041000000    -1.668000000
H     4.177000000     6.063000000    -1.042000000
O    -4.258000000    -2.348000000     0.921000000
H    -5.171000000    -2.451000000     1.192000000
H    -3.758000000    -2.416000000     1.734000000
O    -4.101000000    -6.473000000    -2.123000000
H    -3.644000000    -5.946000000    -2.779000000
H    -4.239000000    -5.875000000    -1.389000000
O     4.194000000     1.259000000    -4.323000000
H     4.230000000     1.970000000    -4.964000000
H     4.165000000     0.462000000    -4.852000000
O    -2.783000000     0.072000000    -0.273000000
H    -3.225000000    -0.504000000     0.352000000
H    -1.882000000    -0.252000000    -0.301000000
O     0.288000000    -3.939000000     2.229000000
H     0.234000000    -3.930000000     1.274000000
H    -0.487000000    -3.456000000     2.518000000
O    -2.846000000     5.320000000     0.660000000
H    -2.857000000     4.507000000     0.155000000
H    -2.343000000     5.106000000     1.446000000
O    -3.065000000    -0.403000000    -6.956000000
H    -2.924000000    -0.919000000    -6.163000000
H    -2.891000000    -1.013000000    -7.673000000
O    -1.420000000    -5.098000000    -0.067000000
H    -0.556000000    -5.508000000    -0.100000000
H    -1.353000000    -4.352000000    -0.663000000
O    -2.181000000    -2.985000000     3.122000000
H    -2.865000000    -3.495000000     3.556000000
H    -2.022000000    -2.247000000     3.710000000
O    -4.005000000    -2.463000000    -1.857000000
H    -4.081000000    -2.606000000    -0.913000000
H    -3.065000000    -2.513000000    -2.031000000
O    -3.524000000     2.955000000    -0.612000000
H    -2.911000000     2.296000000    -0.287000000
H    -4.265000000     2.449000000    -0.945000000
O    -0.816000000     2.896000000     7.460000000
H    -0.945000000     3.745000000     7.037000000
H    -1.659000000     2.704000000     7.871000000
O     1.719000000     3.257000000     5.324000000
H     2.351000000     2.717000000     4.849000000
H     1.705000000     4.086000000     4.845000000
O     2.958000000    -2.462000000    -2.578000000
H     2.056000000    -2.469000000    -2.896000000
H     2.879000000    -2.552000000    -1.629000000
O     2.937000000     2.680000000    -2.291000000
H     3.718000000     3.174000000    -2.038000000
H     3.215000000     2.165000000    -3.048000000
O     1.868000000    -1.055000000     5.577000000
H     1.560000000    -0.252000000     5.156000000
H     1.851000000    -1.712000000     4.881000000
O    -2.417000000     2.433000000    -3.888000000
H    -1.506000000     2.400000000    -3.596000000
H    -2.729000000     1.532000000    -3.803000000
O    -2.981000000    -6.149000000     1.707000000
H    -3.790000000    -6.251000000     1.205000000
H    -2.416000000    -5.620000000     1.144000000
O    -1.678000000     4.978000000     3.187000000
H    -0.788000000     4.932000000     3.536000000
H    -2.201000000     4.458000000     3.797000000
O    -2.256000000    -4.692000000    -3.601000000
H    -1.678000000    -4.362000000    -2.913000000
H    -1.839000000    -4.413000000    -4.417000000
O     2.354000000    -3.371000000     4.114000000
H     1.644000000    -3.493000000     3.485000000
H     2.900000000    -4.151000000     4.013000000
O     1.239000000     6.506000000     1.105000000
H     1.241000000     7.431000000     0.860000000
H     0.634000000     6.096000000     0.486000000
O     1.272000000     5.492000000     3.663000000
H     1.066000000     5.799000000     2.781000000
H     1.277000000     6.286000000     4.198000000
O    -2.701000000    -1.786000000    -4.454000000
H    -2.678000000    -1.019000000    -3.882000000
H    -1.931000000    -2.296000000    -4.202000000
O     1.467000000    -5.535000000    -0.107000000
H     2.205000000    -4.941000000    -0.241000000
H     1.346000000    -5.962000000    -0.955000000
O    -5.488000000    -3.513000000    -3.698000000
H    -4.964000000    -3.296000000    -2.926000000
H    -4.850000000    -3.583000000    -4.408000000
O     2.783000000    -2.456000000     0.043000000
H     2.369000000    -2.340000000     0.898000000
H     2.947000000    -1.566000000    -0.267000000
