144
-2773.70524
O    -1.703000000     5.498000000     3.926000000
H    -0.780000000     5.368000000     3.706000000
H    -2.073000000     4.616000000     3.940000000
O    -4.341000000     2.105000000     0.162000000
H    -4.444000000     1.156000000     0.235000000
H    -4.431000000     2.425000000     1.060000000
O     0.190000000     3.052000000     4.424000000
H    -0.726000000     2.786000000     4.497000000
H     0.687000000     2.272000000     4.670000000
O     6.524000000     3.602000000     1.527000000
H     6.673000000     4.438000000     1.085000000
H     6.219000000     3.844000000     2.402000000
O     3.165000000    -3.225000000    -3.849000000
H     2.890000000    -3.475000000    -2.967000000
H     2.559000000    -2.528000000    -4.101000000
O     3.299000000     3.278000000    -4.538000000
H     4.005000000     3.015000000    -5.128000000
H     3.715000000     3.875000000    -3.916000000
O     5.954000000    -1.351000000     3.146000000
H     5.550000000    -0.499000000     2.984000000
H     6.884000000    -1.157000000     3.262000000
O     2.073000000    -3.819000000    -1.337000000
H     1.363000000    -4.407000000    -1.596000000
H     1.897000000    -3.621000000    -0.417000000
O    -5.236000000    -5.295000000    -5.384000000
H    -4.500000000    -4.926000000    -4.895000000
H    -5.873000000    -5.538000000    -4.712000000
O     5.128000000    -1.457000000    -2.821000000
H     4.744000000    -2.240000000    -3.217000000
H     4.401000000    -0.838000000    -2.760000000
O    -1.715000000     2.955000000    -0.652000000
H    -1.460000000     2.310000000    -1.312000000
H    -2.504000000     2.589000000    -0.252000000
O    -4.430000000    -0.775000000    -2.366000000
H    -4.096000000     0.109000000    -2.215000000
H    -3.646000000    -1.307000000    -2.503000000
O     2.224000000     4.771000000     3.297000000
H     1.806000000     3.963000000     3.597000000
H     1.599000000     5.461000000     3.523000000
O     4.593000000     2.318000000    -1.449000000
H     4.903000000     3.125000000    -1.859000000
H     4.108000000     2.612000000    -0.677000000
O     1.849000000    -1.089000000    -4.442000000
H     1.823000000    -0.709000000    -5.321000000
H     2.461000000    -0.533000000    -3.959000000
O    -3.306000000     4.145000000    -4.238000000
H    -2.656000000     4.789000000    -4.520000000
H    -2.788000000     3.417000000    -3.894000000
O     3.646000000    -2.048000000     4.649000000
H     4.502000000    -2.452000000     4.504000000
H     3.121000000    -2.324000000     3.898000000
O     3.496000000     0.620000000    -3.224000000
H     3.823000000     1.083000000    -2.453000000
H     3.632000000     1.233000000    -3.947000000
O     0.718000000    -6.658000000    -3.838000000
H     0.324000000    -6.250000000    -4.609000000
H     0.394000000    -6.140000000    -3.101000000
O     0.790000000     0.500000000     4.965000000
H     1.645000000     0.388000000     5.380000000
H     0.305000000    -0.291000000     5.200000000
O    -2.274000000     5.529000000    -0.028000000
H    -2.207000000     4.624000000    -0.333000000
H    -1.432000000     5.703000000     0.392000000
O    -1.133000000    -2.132000000     5.419000000
H    -1.649000000    -1.416000000     5.788000000
H    -0.461000000    -2.307000000     6.078000000
O    -5.174000000    -0.407000000     1.553000000
H    -5.701000000    -1.071000000     1.109000000
H    -5.655000000    -0.218000000     2.359000000
O    -3.155000000    -0.263000000     3.688000000
H    -3.696000000    -0.560000000     2.956000000
H    -2.666000000    -1.042000000     3.955000000
O    -1.699000000     1.730000000    -3.685000000
H    -1.901000000     0.915000000    -4.143000000
H    -0.811000000     1.950000000    -3.967000000
O     1.878000000    -2.239000000     2.414000000
H     1.246000000    -1.555000000     2.636000000
H     1.473000000    -2.713000000     1.688000000
O     4.489000000    -2.804000000     1.464000000
H     4.992000000    -2.343000000     2.134000000
H     3.587000000    -2.512000000     1.598000000
O    -1.797000000    -6.989000000    -0.806000000
H    -2.194000000    -6.755000000     0.033000000
H    -2.499000000    -7.425000000    -1.289000000
O     5.134000000     4.431000000     3.773000000
H     5.163000000     4.360000000     4.727000000
H     4.275000000     4.810000000     3.587000000
O    -6.011000000    -6.162000000    -0.767000000
H    -5.419000000    -5.410000000    -0.760000000
H    -5.432000000    -6.923000000    -0.775000000
O    -2.440000000    -1.035000000    -4.909000000
H    -1.881000000    -1.698000000    -5.313000000
H    -2.434000000    -1.253000000    -3.977000000
O    -5.171000000    -0.682000000    -5.431000000
H    -5.601000000    -1.395000000    -4.958000000
H    -4.303000000    -0.620000000    -5.033000000
O     3.254000000     6.624000000     1.017000000
H     3.609000000     7.126000000     1.750000000
H     3.147000000     5.738000000     1.363000000
O    -0.257000000    -2.644000000    -5.247000000
H    -0.192000000    -3.554000000    -4.957000000
H     0.441000000    -2.191000000    -4.774000000
O     5.552000000     1.381000000     3.235000000
H     4.711000000     1.797000000     3.425000000
H     5.964000000     1.958000000     2.591000000
O    -1.161000000     3.680000000    -6.084000000
H    -1.900000000     3.111000000    -6.299000000
H    -0.575000000     3.127000000    -5.568000000
O    -2.712000000     2.416000000     4.413000000
H    -2.818000000     1.500000000     4.156000000
H    -3.139000000     2.476000000     5.268000000
O    -1.224000000    -4.034000000     3.496000000
H    -1.314000000    -3.379000000     4.188000000
H    -2.080000000    -4.049000000     3.067000000
O     0.725000000    -7.425000000    -0.085000000
H     0.517000000    -7.741000000     0.795000000
H    -0.126000000    -7.328000000    -0.512000000
O     0.107000000     6.372000000     1.354000000
H     0.517000000     5.538000000     1.583000000
H     0.131000000     6.882000000     2.164000000
O    -3.422000000    -4.298000000    -3.321000000
H    -3.950000000    -4.479000000    -2.544000000
H    -2.825000000    -3.601000000    -3.049000000
O     0.872000000     2.105000000    -4.596000000
H     1.015000000     1.389000000    -5.215000000
H     1.692000000     2.599000000    -4.608000000
O    -4.408000000    -3.983000000    -0.770000000
H    -3.568000000    -3.603000000    -0.514000000
H    -5.047000000    -3.293000000    -0.592000000
O    -6.893000000    -2.110000000    -2.697000000
H    -6.069000000    -1.624000000    -2.735000000
H    -7.478000000    -1.635000000    -3.287000000
O    -3.976000000    -4.912000000     2.137000000
H    -4.146000000    -4.694000000     1.221000000
H    -3.530000000    -5.757000000     2.104000000
O     4.258000000     2.160000000     6.060000000
H     4.964000000     1.981000000     6.681000000
H     3.618000000     1.466000000     6.218000000
O     0.239000000    -3.933000000     0.684000000
H    -0.118000000    -4.434000000     1.418000000
H    -0.512000000    -3.784000000     0.109000000
O    -0.380000000    -4.863000000    -2.242000000
H    -0.926000000    -5.500000000    -1.782000000
H    -0.826000000    -4.026000000    -2.110000000
