144
-2805.98414
O     0.675000000     2.586000000     4.806000000
H     0.035000000     1.923000000     5.063000000
H     1.077000000     2.236000000     4.011000000
O    -2.496000000     2.670000000    -2.907000000
H    -2.657000000     2.418000000    -1.998000000
H    -2.294000000     3.605000000    -2.864000000
O     7.625000000    -0.647000000    -0.075000000
H     7.827000000     0.278000000     0.064000000
H     7.083000000    -0.890000000     0.676000000
O     4.266000000     1.718000000    -0.195000000
H     4.028000000     1.100000000     0.495000000
H     4.246000000     1.200000000    -0.999000000
O     4.313000000    -4.409000000    -0.947000000
H     3.934000000    -3.604000000    -0.595000000
H     5.032000000    -4.616000000    -0.350000000
O    -6.233000000     3.517000000     4.108000000
H    -5.346000000     3.290000000     3.829000000
H    -6.649000000     2.675000000     4.291000000
O    -1.029000000     0.062000000     5.817000000
H    -1.937000000    -0.208000000     5.960000000
H    -0.738000000     0.383000000     6.670000000
O     3.074000000    -6.069000000    -2.827000000
H     2.765000000    -6.227000000    -1.935000000
H     3.842000000    -5.508000000    -2.718000000
O     3.774000000    -0.470000000     1.764000000
H     4.546000000    -0.832000000     2.199000000
H     3.515000000    -1.143000000     1.135000000
O    -1.365000000    -1.977000000    -2.773000000
H    -1.086000000    -2.864000000    -2.546000000
H    -0.936000000    -1.797000000    -3.609000000
O    -5.425000000     2.478000000    -3.532000000
H    -5.832000000     1.703000000    -3.144000000
H    -4.533000000     2.200000000    -3.742000000
O     0.726000000    -0.470000000    -4.434000000
H     1.276000000    -0.110000000    -5.129000000
H     1.330000000    -0.629000000    -3.708000000
O     3.071000000    -3.801000000    -5.971000000
H     3.325000000    -3.451000000    -5.117000000
H     2.127000000    -3.941000000    -5.901000000
O     3.681000000    -6.653000000     2.323000000
H     4.403000000    -6.314000000     2.852000000
H     3.207000000    -5.872000000     2.035000000
O     1.762000000     1.096000000     2.458000000
H     1.093000000     0.656000000     1.935000000
H     2.567000000     0.612000000     2.275000000
O     6.840000000    -1.976000000    -2.830000000
H     7.363000000    -1.444000000    -2.231000000
H     7.479000000    -2.534000000    -3.274000000
O    -3.689000000    -1.428000000     3.736000000
H    -3.424000000    -2.097000000     3.105000000
H    -4.520000000    -1.747000000     4.088000000
O    -5.762000000    -1.157000000     0.338000000
H    -5.925000000    -2.075000000     0.555000000
H    -4.942000000    -1.169000000    -0.155000000
O     4.070000000     0.402000000    -2.481000000
H     3.645000000    -0.454000000    -2.536000000
H     4.436000000     0.544000000    -3.354000000
O     3.256000000    -2.917000000     3.694000000
H     3.056000000    -1.989000000     3.814000000
H     4.153000000    -3.011000000     4.013000000
O     2.410000000     1.990000000    -5.473000000
H     1.972000000     2.170000000    -6.304000000
H     1.841000000     2.384000000    -4.811000000
O    -6.090000000     0.194000000    -2.416000000
H    -6.479000000    -0.467000000    -1.844000000
H    -5.146000000     0.086000000    -2.302000000
O     5.258000000    -1.698000000    -6.712000000
H     5.621000000    -2.312000000    -7.350000000
H     4.865000000    -2.255000000    -6.040000000
O    -1.852000000     1.514000000    -5.492000000
H    -1.059000000     1.042000000    -5.236000000
H    -2.233000000     1.808000000    -4.665000000
O    -2.437000000    -3.413000000     0.288000000
H    -1.846000000    -4.165000000     0.254000000
H    -1.988000000    -2.780000000     0.849000000
O     2.905000000     4.025000000    -2.967000000
H     2.020000000     3.936000000    -3.320000000
H     2.807000000     3.856000000    -2.030000000
O    -3.600000000     1.392000000     4.082000000
H    -3.723000000     1.125000000     4.993000000
H    -3.594000000     0.571000000     3.590000000
O    -7.378000000     0.819000000     0.667000000
H    -6.662000000     0.209000000     0.489000000
H    -6.941000000     1.635000000     0.912000000
O    -4.467000000     3.734000000    -0.986000000
H    -4.796000000     3.518000000    -1.858000000
H    -4.104000000     4.615000000    -1.078000000
O    -3.466000000    -0.791000000    -1.402000000
H    -2.877000000    -1.436000000    -1.793000000
H    -2.923000000    -0.328000000    -0.764000000
O    -1.194000000    -5.638000000     0.868000000
H    -0.832000000    -6.303000000     0.283000000
H    -0.910000000    -5.906000000     1.741000000
O     1.935000000     3.963000000     1.952000000
H     2.709000000     4.401000000     2.307000000
H     2.108000000     3.030000000     2.077000000
O     4.913000000     0.473000000    -5.050000000
H     4.890000000    -0.073000000    -5.836000000
H     4.064000000     0.915000000    -5.041000000
O     1.764000000    -6.619000000    -0.432000000
H     1.606000000    -6.102000000     0.357000000
H     1.512000000    -7.510000000    -0.189000000
O    -3.189000000     4.103000000     4.739000000
H    -3.152000000     3.263000000     4.281000000
H    -3.497000000     4.723000000     4.077000000
O     0.400000000     3.342000000    -3.878000000
H    -0.085000000     3.794000000    -3.188000000
H    -0.091000000     3.530000000    -4.678000000
O     4.554000000    -2.712000000    -3.867000000
H     5.298000000    -2.299000000    -3.430000000
H     3.803000000    -2.504000000    -3.311000000
O     0.146000000    -1.951000000     4.297000000
H    -0.175000000    -1.108000000     4.615000000
H    -0.580000000    -2.557000000     4.447000000
O    -1.857000000     5.184000000    -2.205000000
H    -1.318000000     5.735000000    -2.772000000
H    -1.815000000     5.609000000    -1.348000000
O     0.219000000    -5.214000000    -5.522000000
H     1.081000000    -5.624000000    -5.596000000
H     0.278000000    -4.673000000    -4.734000000
O     6.371000000    -1.328000000     2.474000000
H     6.970000000    -2.020000000     2.754000000
H     6.403000000    -0.683000000     3.180000000
O     3.342000000     4.322000000    -0.299000000
H     2.535000000     4.249000000     0.210000000
H     3.786000000     3.485000000    -0.167000000
O     2.472000000    -4.490000000     1.498000000
H     2.666000000    -3.893000000     2.220000000
H     2.664000000    -3.982000000     0.709000000
O    -4.181000000     5.563000000     2.665000000
H    -4.611000000     6.374000000     2.396000000
H    -3.906000000     5.154000000     1.845000000
O     0.887000000    -4.857000000     4.785000000
H    -0.035000000    -4.791000000     5.032000000
H     1.025000000    -4.131000000     4.177000000
O     1.300000000    -3.632000000    -3.863000000
H     1.890000000    -4.263000000    -3.452000000
H     1.425000000    -2.825000000    -3.363000000
O    -5.521000000     2.957000000     1.352000000
H    -5.173000000     3.422000000     0.592000000
H    -5.625000000     3.634000000     2.021000000
O    -0.744000000     5.310000000     4.513000000
H    -0.163000000     4.551000000     4.560000000
H    -1.599000000     4.975000000     4.784000000
