144
-2794.04142
O    -1.598000000     2.654000000     5.467000000
H    -2.351000000     2.794000000     6.042000000
H    -1.657000000     1.733000000     5.213000000
O    -4.400000000     3.009000000    -0.368000000
H    -4.092000000     3.914000000    -0.426000000
H    -4.839000000     2.959000000     0.481000000
O     4.383000000     3.303000000     2.955000000
H     3.882000000     2.562000000     3.295000000
H     5.143000000     3.364000000     3.534000000
O     2.779000000    -5.391000000    -1.083000000
H     2.216000000    -4.770000000    -0.620000000
H     2.944000000    -4.978000000    -1.931000000
O     4.301000000    -5.244000000     1.206000000
H     3.702000000    -5.313000000     0.462000000
H     4.585000000    -6.144000000     1.368000000
O     4.036000000    -2.444000000     0.951000000
H     4.458000000    -3.202000000     1.356000000
H     3.142000000    -2.735000000     0.770000000
O    -1.072000000     3.510000000    -6.540000000
H    -0.329000000     3.288000000    -5.979000000
H    -0.680000000     3.954000000    -7.292000000
O    -1.288000000    -2.628000000    -3.161000000
H    -1.947000000    -3.233000000    -2.820000000
H    -0.683000000    -2.496000000    -2.430000000
O     3.404000000     1.708000000     4.767000000
H     2.867000000     1.048000000     4.330000000
H     2.924000000     1.916000000     5.569000000
O    -0.787000000    -4.389000000    -5.146000000
H    -0.429000000    -3.502000000    -5.155000000
H    -0.551000000    -4.734000000    -4.285000000
O     1.022000000     0.610000000     5.606000000
H     0.067000000     0.671000000     5.597000000
H     1.202000000    -0.325000000     5.706000000
O    -5.229000000     1.240000000     4.382000000
H    -5.657000000     1.704000000     5.101000000
H    -4.786000000     0.503000000     4.803000000
O     2.834000000    -3.901000000    -6.265000000
H     2.038000000    -3.420000000    -6.494000000
H     2.897000000    -3.820000000    -5.313000000
O     1.105000000     2.830000000    -5.358000000
H     1.453000000     2.978000000    -4.479000000
H     1.662000000     2.144000000    -5.724000000
O     1.297000000    -2.573000000     4.545000000
H     2.244000000    -2.692000000     4.469000000
H     1.082000000    -2.910000000     5.415000000
O    -4.160000000    -0.923000000     1.880000000
H    -3.814000000    -0.077000000     2.161000000
H    -3.564000000    -1.566000000     2.264000000
O     4.268000000    -1.149000000    -1.781000000
H     4.254000000    -1.564000000    -0.919000000
H     5.160000000    -0.812000000    -1.870000000
O     2.883000000     2.838000000    -1.194000000
H     2.837000000     2.224000000    -1.927000000
H     2.359000000     2.429000000    -0.505000000
O     3.094000000    -4.802000000     3.897000000
H     4.049000000    -4.851000000     3.926000000
H     2.871000000    -5.012000000     2.990000000
O     2.921000000     1.127000000    -3.232000000
H     2.920000000     0.404000000    -2.605000000
H     3.482000000     0.824000000    -3.946000000
O    -6.987000000     2.115000000    -1.275000000
H    -6.060000000     2.343000000    -1.217000000
H    -7.358000000     2.409000000    -0.443000000
O    -2.081000000     0.027000000    -3.689000000
H    -1.856000000     0.285000000    -2.795000000
H    -2.571000000    -0.789000000    -3.586000000
O     2.962000000     5.565000000     3.483000000
H     3.361000000     4.724000000     3.261000000
H     2.588000000     5.432000000     4.353000000
O     3.924000000    -2.533000000     5.646000000
H     4.494000000    -1.765000000     5.625000000
H     4.044000000    -2.944000000     4.790000000
O    -2.368000000    -2.515000000     3.077000000
H    -2.990000000    -3.192000000     3.345000000
H    -1.635000000    -3.000000000     2.699000000
O    -1.664000000     0.851000000    -6.321000000
H    -1.477000000     1.737000000    -6.629000000
H    -1.665000000     0.925000000    -5.366000000
O     0.891000000     6.010000000    -4.874000000
H     0.407000000     6.163000000    -5.685000000
H     0.286000000     5.511000000    -4.325000000
O    -0.063000000     6.954000000     1.592000000
H     0.394000000     6.121000000     1.478000000
H    -0.096000000     7.082000000     2.540000000
O    -3.837000000     0.239000000    -0.700000000
H    -3.906000000    -0.169000000     0.164000000
H    -3.961000000     1.174000000    -0.534000000
O    -0.724000000     4.880000000     4.098000000
H     0.175000000     5.003000000     4.404000000
H    -1.078000000     4.195000000     4.666000000
O     2.971000000    -2.972000000    -3.830000000
H     2.254000000    -2.900000000    -3.200000000
H     3.639000000    -2.368000000    -3.503000000
O    -0.968000000    -6.510000000     1.886000000
H    -0.899000000    -5.557000000     1.942000000
H    -0.093000000    -6.827000000     2.108000000
O    -2.926000000     5.589000000     2.533000000
H    -3.474000000     5.193000000     3.210000000
H    -2.036000000     5.312000000     2.753000000
O    -1.206000000     4.769000000    -3.042000000
H    -1.051000000     5.282000000    -2.249000000
H    -1.456000000     3.902000000    -2.722000000
O     0.256000000    -1.655000000    -5.315000000
H     0.092000000    -0.714000000    -5.250000000
H    -0.371000000    -2.050000000    -4.709000000
O     2.310000000    -8.491000000    -0.914000000
H     2.268000000    -7.536000000    -0.975000000
H     1.395000000    -8.770000000    -0.890000000
O    -1.800000000     0.080000000     5.041000000
H    -2.278000000    -0.399000000     5.717000000
H    -1.915000000    -0.445000000     4.248000000
O     3.120000000     6.473000000     0.860000000
H     2.993000000     7.355000000     1.210000000
H     3.142000000     5.909000000     1.633000000
O     3.233000000     5.581000000    -1.583000000
H     3.123000000     4.642000000    -1.432000000
H     3.173000000     5.972000000    -0.712000000
O     4.791000000    -6.319000000    -3.646000000
H     4.995000000    -5.849000000    -4.454000000
H     3.837000000    -6.407000000    -3.654000000
O    -1.288000000     7.175000000    -1.003000000
H    -0.823000000     7.119000000    -0.168000000
H    -0.818000000     7.849000000    -1.494000000
O    -2.844000000    -5.083000000    -1.611000000
H    -3.106000000    -5.818000000    -2.165000000
H    -3.635000000    -4.548000000    -1.533000000
O     2.864000000     0.665000000     0.975000000
H     3.422000000    -0.027000000     0.620000000
H     2.070000000     0.211000000     1.256000000
O    -3.438000000     5.522000000    -0.245000000
H    -3.174000000     5.439000000     0.671000000
H    -2.786000000     6.106000000    -0.631000000
O     1.344000000    -7.405000000    -4.390000000
H     0.879000000    -7.398000000    -5.227000000
H     0.993000000    -6.652000000    -3.915000000
O    -0.086000000    -3.851000000     2.448000000
H     0.411000000    -3.477000000     3.176000000
H     0.492000000    -3.758000000     1.691000000
O    -5.299000000     2.932000000     2.227000000
H    -5.032000000     2.674000000     3.110000000
H    -5.538000000     3.855000000     2.309000000
O     0.067000000    -5.386000000    -2.788000000
H     0.217000000    -5.978000000    -2.051000000
H     0.343000000    -4.528000000    -2.466000000
