144
-2834.51777
O    -0.188000000     1.758000000     4.766000000
H    -0.808000000     1.144000000     5.158000000
H     0.177000000     1.285000000     4.018000000
O    -4.516000000     2.113000000    -1.684000000
H    -3.741000000     2.234000000    -2.233000000
H    -4.944000000     2.969000000    -1.680000000
O     4.454000000    -0.183000000     0.833000000
H     3.824000000    -0.276000000     1.547000000
H     4.545000000    -1.067000000     0.476000000
O     2.834000000    -5.703000000     0.447000000
H     2.312000000    -4.941000000     0.194000000
H     3.596000000    -5.334000000     0.894000000
O     0.603000000    -1.807000000     6.706000000
H    -0.004000000    -2.416000000     7.126000000
H     0.267000000    -1.710000000     5.815000000
O    -2.087000000     0.225000000     5.804000000
H    -1.904000000     0.057000000     6.728000000
H    -3.015000000     0.459000000     5.782000000
O     2.396000000    -7.026000000    -1.867000000
H     1.931000000    -7.849000000    -1.716000000
H     2.650000000    -6.730000000    -0.992000000
O     2.768000000    -2.048000000     1.952000000
H     3.210000000    -2.639000000     2.561000000
H     2.373000000    -2.628000000     1.300000000
O    -1.952000000    -1.269000000    -2.770000000
H    -1.608000000    -1.201000000    -1.879000000
H    -1.483000000    -2.012000000    -3.151000000
O    -4.845000000     4.703000000    -1.484000000
H    -4.817000000     4.848000000    -2.430000000
H    -3.954000000     4.886000000    -1.187000000
O    -0.169000000    -3.274000000    -3.053000000
H     0.778000000    -3.368000000    -2.948000000
H    -0.517000000    -4.148000000    -2.876000000
O     1.899000000    -4.740000000    -5.616000000
H     2.374000000    -4.367000000    -4.873000000
H     1.765000000    -5.658000000    -5.378000000
O     1.842000000    -7.141000000     2.889000000
H     2.744000000    -6.958000000     2.624000000
H     1.362000000    -7.222000000     2.064000000
O     1.520000000     0.348000000     2.843000000
H     1.145000000     0.306000000     1.963000000
H     1.790000000    -0.551000000     3.032000000
O     5.341000000    -4.622000000     0.934000000
H     4.975000000    -3.885000000     0.445000000
H     6.268000000    -4.405000000     1.035000000
O    -2.487000000    -3.691000000     2.916000000
H    -2.137000000    -4.392000000     3.466000000
H    -3.224000000    -4.092000000     2.457000000
O    -5.104000000     0.484000000     1.458000000
H    -4.782000000     0.017000000     0.688000000
H    -4.489000000     0.252000000     2.154000000
O     4.784000000    -2.598000000    -0.852000000
H     3.891000000    -2.933000000    -0.932000000
H     4.920000000    -2.085000000    -1.648000000
O     4.341000000     4.804000000    -0.526000000
H     4.487000000     5.090000000     0.376000000
H     4.152000000     3.868000000    -0.453000000
O     0.731000000    -4.859000000     4.134000000
H     1.494000000    -4.289000000     4.234000000
H     1.021000000    -5.543000000     3.529000000
O    -2.646000000     2.500000000    -3.444000000
H    -2.557000000     3.421000000    -3.690000000
H    -3.109000000     2.100000000    -4.180000000
O    -0.857000000     4.730000000     4.968000000
H    -1.050000000     4.780000000     5.905000000
H    -0.554000000     3.833000000     4.834000000
O     2.814000000     0.307000000    -4.500000000
H     1.913000000    -0.015000000    -4.507000000
H     2.752000000     1.185000000    -4.124000000
O     1.229000000     5.658000000     3.608000000
H     0.601000000     5.518000000     4.317000000
H     1.942000000     5.049000000     3.797000000
O    -0.058000000     0.585000000    -4.367000000
H    -0.614000000     0.086000000    -3.768000000
H    -0.478000000     1.443000000    -4.426000000
O     4.055000000    -3.738000000     3.415000000
H     4.212000000    -3.516000000     4.333000000
H     4.909000000    -4.022000000     3.088000000
O     2.814000000     2.838000000    -3.190000000
H     2.120000000     3.433000000    -3.474000000
H     3.367000000     3.371000000    -2.619000000
O    -3.519000000    -0.736000000     3.262000000
H    -3.455000000    -0.391000000     4.153000000
H    -3.299000000    -1.664000000     3.349000000
O    -2.948000000     5.215000000    -4.123000000
H    -3.702000000     5.772000000    -4.313000000
H    -2.287000000     5.478000000    -4.763000000
O     0.745000000     7.335000000     1.578000000
H     0.584000000     8.208000000     1.936000000
H     0.824000000     6.772000000     2.348000000
O    -4.322000000    -0.476000000    -1.147000000
H    -3.408000000    -0.753000000    -1.201000000
H    -4.294000000     0.470000000    -1.284000000
O     3.206000000     3.001000000     2.976000000
H     2.462000000     2.637000000     3.455000000
H     3.263000000     2.470000000     2.181000000
O     4.745000000    -1.588000000    -3.483000000
H     4.893000000    -1.967000000    -4.349000000
H     4.125000000    -0.875000000    -3.636000000
O    -0.637000000    -7.381000000    -1.084000000
H    -0.372000000    -6.698000000    -0.468000000
H    -1.302000000    -7.883000000    -0.614000000
O    -4.278000000     3.948000000     3.787000000
H    -3.353000000     3.975000000     3.542000000
H    -4.707000000     4.533000000     3.162000000
O     0.612000000     4.419000000    -4.229000000
H     0.274000000     4.757000000    -3.399000000
H     0.238000000     4.998000000    -4.893000000
O    -0.197000000    -1.700000000    -6.127000000
H    -0.691000000    -1.099000000    -6.686000000
H    -0.058000000    -1.211000000    -5.316000000
O     5.999000000    -5.247000000    -3.805000000
H     6.005000000    -4.686000000    -4.581000000
H     5.166000000    -5.051000000    -3.375000000
O     5.554000000     2.115000000    -3.884000000
H     4.676000000     2.428000000    -3.668000000
H     5.482000000     1.161000000    -3.852000000
O    -0.812000000    -1.888000000     4.366000000
H    -1.270000000    -1.118000000     4.702000000
H    -1.497000000    -2.413000000     3.952000000
O    -0.219000000     5.719000000    -1.530000000
H    -1.097000000     5.493000000    -1.222000000
H     0.333000000     5.650000000    -0.752000000
O     0.104000000    -6.018000000    -3.216000000
H    -0.221000000    -6.445000000    -2.424000000
H     0.867000000    -6.537000000    -3.472000000
O     3.552000000     2.141000000    -0.368000000
H     2.758000000     1.813000000    -0.789000000
H     3.857000000     1.410000000     0.170000000
O    -2.580000000     5.613000000    -0.106000000
H    -2.882000000     6.520000000    -0.158000000
H    -2.178000000     5.544000000     0.760000000
O    -0.322000000    -5.808000000     1.286000000
H    -0.975000000    -5.187000000     1.610000000
H     0.421000000    -5.261000000     1.031000000
O    -4.850000000     5.832000000     1.928000000
H    -5.594000000     6.416000000     1.781000000
H    -4.697000000     5.419000000     1.078000000
O     3.440000000    -4.459000000    -3.014000000
H     2.984000000    -5.180000000    -2.580000000
H     3.234000000    -3.691000000    -2.482000000
O    -1.454000000     5.304000000     2.353000000
H    -0.621000000     5.589000000     1.978000000
H    -1.259000000     5.141000000     3.276000000
