144
-2820.54603
O    -3.108000000    -2.268000000     3.574000000
H    -2.462000000    -2.483000000     2.901000000
H    -3.481000000    -3.112000000     3.827000000
O    -0.376000000     0.016000000    -4.958000000
H    -0.675000000     0.916000000    -4.824000000
H     0.485000000     0.109000000    -5.364000000
O    -1.335000000    -2.594000000    -4.787000000
H    -1.172000000    -2.999000000    -3.936000000
H    -1.002000000    -1.702000000    -4.696000000
O     3.054000000    -4.233000000    -2.142000000
H     2.433000000    -4.960000000    -2.194000000
H     2.840000000    -3.682000000    -2.895000000
O     6.293000000     1.524000000    -1.422000000
H     6.511000000     0.673000000    -1.043000000
H     6.663000000     1.496000000    -2.304000000
O     3.684000000     2.162000000    -2.986000000
H     3.673000000     1.301000000    -2.568000000
H     4.155000000     2.023000000    -3.808000000
O    -6.684000000    -1.145000000     4.681000000
H    -5.914000000    -1.007000000     4.131000000
H    -6.469000000    -0.712000000     5.507000000
O    -1.489000000     5.581000000    -0.044000000
H    -1.022000000     6.141000000     0.576000000
H    -0.817000000     4.993000000    -0.388000000
O    -3.686000000     2.019000000    -4.710000000
H    -3.591000000     1.804000000    -5.638000000
H    -3.021000000     2.690000000    -4.550000000
O    -0.753000000    -1.280000000     5.606000000
H    -1.018000000    -1.400000000     4.693000000
H    -1.310000000    -0.570000000     5.926000000
O    -5.324000000    -2.544000000     1.773000000
H    -4.425000000    -2.633000000     1.457000000
H    -5.406000000    -1.618000000     2.002000000
O     1.952000000     1.400000000     6.530000000
H     1.031000000     1.424000000     6.792000000
H     1.974000000     1.856000000     5.689000000
O     1.810000000    -4.094000000     1.808000000
H     2.210000000    -3.939000000     2.665000000
H     2.552000000    -4.191000000     1.212000000
O     8.214000000     0.807000000     2.321000000
H     8.190000000     1.752000000     2.471000000
H     7.796000000     0.689000000     1.468000000
O    -1.484000000    -4.215000000    -2.417000000
H    -0.877000000    -4.347000000    -1.689000000
H    -2.227000000    -4.784000000    -2.215000000
O     4.111000000    -3.622000000     0.190000000
H     4.045000000    -3.980000000    -0.695000000
H     3.791000000    -2.724000000     0.109000000
O    -3.027000000    -2.824000000     0.204000000
H    -2.830000000    -2.408000000    -0.635000000
H    -2.174000000    -2.935000000     0.623000000
O     6.599000000    -5.130000000    -0.072000000
H     6.081000000    -4.338000000     0.076000000
H     7.000000000    -4.997000000    -0.931000000
O    -2.879000000     0.368000000     4.877000000
H    -3.157000000     1.264000000     4.689000000
H    -3.429000000    -0.177000000     4.315000000
O     4.976000000    -0.101000000    -5.369000000
H     5.015000000     0.855000000    -5.412000000
H     4.951000000    -0.380000000    -6.284000000
O     0.974000000     3.469000000    -0.310000000
H     1.604000000     2.759000000    -0.192000000
H     0.228000000     3.058000000    -0.747000000
O     1.719000000    -1.258000000    -6.402000000
H     2.395000000    -1.935000000    -6.365000000
H     2.206000000    -0.438000000    -6.485000000
O     5.062000000     3.183000000     2.928000000
H     4.815000000     2.356000000     3.340000000
H     5.996000000     3.088000000     2.741000000
O    -4.782000000     2.888000000     1.596000000
H    -4.241000000     3.656000000     1.413000000
H    -5.303000000     2.767000000     0.802000000
O     3.244000000    -3.130000000     4.056000000
H     2.887000000    -2.406000000     4.571000000
H     4.026000000    -2.766000000     3.641000000
O    -3.395000000     5.250000000     2.103000000
H    -2.693000000     5.744000000     1.680000000
H    -3.552000000     5.713000000     2.926000000
O    -4.795000000    -1.532000000    -2.415000000
H    -5.362000000    -2.022000000    -1.819000000
H    -4.527000000    -2.175000000    -3.072000000
O     3.750000000     2.742000000     0.095000000
H     4.155000000     2.024000000    -0.390000000
H     4.246000000     2.790000000     0.912000000
O    -0.817000000    -2.676000000     1.719000000
H    -0.681000000    -1.752000000     1.510000000
H     0.066000000    -3.042000000     1.769000000
O    -4.171000000    -1.814000000    -5.244000000
H    -3.341000000    -2.252000000    -5.056000000
H    -4.031000000    -1.385000000    -6.088000000
O    -3.815000000     6.023000000    -1.665000000
H    -3.222000000     5.554000000    -1.078000000
H    -3.761000000     6.936000000    -1.381000000
O     2.419000000     1.897000000     3.902000000
H     2.974000000     1.272000000     3.437000000
H     2.064000000     2.461000000     3.215000000
O     7.651000000    -0.425000000    -4.765000000
H     6.766000000    -0.589000000    -4.440000000
H     7.561000000    -0.427000000    -5.718000000
O     1.144000000     3.211000000    -3.663000000
H     1.877000000     2.940000000    -3.111000000
H     0.390000000     3.219000000    -3.074000000
O     4.340000000    -0.091000000     2.966000000
H     4.007000000    -0.065000000     2.069000000
H     5.103000000    -0.667000000     2.921000000
O    -5.590000000     0.231000000     1.983000000
H    -6.461000000     0.471000000     1.668000000
H    -5.095000000     1.050000000     1.969000000
O     2.321000000    -2.150000000    -3.757000000
H     1.980000000    -1.607000000    -4.467000000
H     2.865000000    -1.555000000    -3.241000000
O     6.347000000    -0.547000000     0.275000000
H     6.660000000    -1.351000000    -0.140000000
H     5.398000000    -0.657000000     0.326000000
O     2.157000000    -1.157000000     5.330000000
H     2.679000000    -0.365000000     5.202000000
H     1.323000000    -0.841000000     5.678000000
O     5.487000000    -1.321000000    -2.977000000
H     5.119000000    -1.015000000    -3.806000000
H     4.773000000    -1.222000000    -2.347000000
O     5.837000000    -2.187000000     2.757000000
H     6.045000000    -2.194000000     1.823000000
H     5.923000000    -3.101000000     3.029000000
O    -4.016000000     2.775000000     4.127000000
H    -4.577000000     3.428000000     4.545000000
H    -4.311000000     2.753000000     3.217000000
O    -1.036000000     3.466000000     4.001000000
H    -1.760000000     4.041000000     3.753000000
H    -1.443000000     2.788000000     4.540000000
O     1.121000000     4.080000000     2.498000000
H     0.865000000     3.869000000     1.600000000
H     0.308000000     4.019000000     2.999000000
O    -4.779000000     1.231000000    -2.442000000
H    -4.506000000     1.521000000    -3.312000000
H    -4.617000000     0.288000000    -2.441000000
O     7.155000000    -2.643000000    -1.261000000
H     8.077000000    -2.438000000    -1.419000000
H     6.721000000    -2.448000000    -2.092000000
O    -1.062000000     2.893000000    -1.916000000
H    -1.797000000     2.642000000    -1.356000000
H    -1.452000000     3.457000000    -2.583000000
O    -6.355000000     2.335000000    -0.636000000
H    -6.970000000     1.668000000    -0.332000000
H    -5.733000000     1.856000000    -1.184000000
