144
-2820.90537
O     1.644000000     6.276000000    -1.877000000
H     1.772000000     5.338000000    -2.022000000
H     2.479000000     6.673000000    -2.124000000
O    -2.025000000    -0.298000000    -3.497000000
H    -2.095000000     0.353000000    -4.195000000
H    -1.626000000    -1.059000000    -3.918000000
O    -5.869000000    -3.689000000     1.063000000
H    -6.516000000    -3.328000000     1.668000000
H    -5.025000000    -3.490000000     1.468000000
O     6.892000000    -1.230000000    -1.810000000
H     7.417000000    -0.453000000    -1.621000000
H     6.154000000    -0.902000000    -2.324000000
O     4.090000000     2.336000000    -5.952000000
H     3.348000000     1.805000000    -6.242000000
H     4.218000000     2.089000000    -5.036000000
O     6.248000000     3.541000000    -2.098000000
H     6.239000000     4.164000000    -2.824000000
H     5.630000000     2.859000000    -2.360000000
O    -5.548000000     1.165000000     4.525000000
H    -5.851000000     2.048000000     4.740000000
H    -5.530000000     0.707000000     5.365000000
O    -2.523000000     3.395000000    -0.041000000
H    -2.874000000     3.011000000     0.762000000
H    -2.834000000     2.819000000    -0.738000000
O     2.392000000     3.962000000    -2.809000000
H     2.123000000     3.052000000    -2.929000000
H     2.624000000     4.261000000    -3.688000000
O     2.161000000    -1.933000000    -5.759000000
H     2.432000000    -2.705000000    -5.262000000
H     1.959000000    -1.278000000    -5.092000000
O    -0.425000000     2.785000000    -3.813000000
H    -0.658000000     2.377000000    -4.647000000
H     0.367000000     2.325000000    -3.535000000
O     2.087000000     2.166000000     7.034000000
H     2.799000000     1.615000000     6.709000000
H     1.579000000     2.387000000     6.254000000
O    -3.124000000     0.825000000    -1.041000000
H    -3.134000000     0.685000000    -1.987000000
H    -2.433000000     0.245000000    -0.720000000
O     4.397000000     1.679000000    -3.144000000
H     4.752000000     0.842000000    -3.443000000
H     3.503000000     1.476000000    -2.869000000
O     0.638000000    -1.538000000     5.012000000
H     0.423000000    -0.711000000     5.443000000
H     1.193000000    -1.999000000     5.640000000
O    -3.933000000    -2.739000000     6.925000000
H    -4.475000000    -3.372000000     6.455000000
H    -3.280000000    -2.460000000     6.283000000
O    -1.652000000     1.137000000    -5.934000000
H    -1.330000000     1.784000000    -6.563000000
H    -1.655000000     0.312000000    -6.420000000
O     1.434000000     1.212000000    -5.816000000
H     1.572000000     1.254000000    -4.870000000
H     0.943000000     0.402000000    -5.951000000
O     4.368000000    -4.615000000     0.363000000
H     4.918000000    -5.390000000     0.484000000
H     3.560000000    -4.819000000     0.833000000
O    -1.288000000     0.656000000     5.688000000
H    -0.787000000     1.401000000     5.356000000
H    -1.367000000     0.820000000     6.628000000
O     3.833000000    -1.155000000    -8.146000000
H     3.433000000    -1.087000000    -7.279000000
H     3.176000000    -1.604000000    -8.678000000
O     3.984000000     4.261000000     2.506000000
H     3.923000000     4.507000000     3.429000000
H     3.335000000     3.565000000     2.400000000
O     0.164000000    -0.879000000    -7.314000000
H    -0.719000000    -1.234000000    -7.213000000
H     0.732000000    -1.525000000    -6.894000000
O     2.827000000    -4.461000000    -4.885000000
H     2.706000000    -5.403000000    -5.006000000
H     2.848000000    -4.342000000    -3.936000000
O     2.805000000     0.146000000     1.107000000
H     3.066000000    -0.502000000     0.453000000
H     1.898000000     0.357000000     0.887000000
O    -3.449000000    -2.029000000    -2.117000000
H    -2.834000000    -1.424000000    -2.533000000
H    -3.819000000    -2.531000000    -2.844000000
O     0.126000000     2.835000000     5.001000000
H    -0.315000000     3.508000000     5.519000000
H     0.397000000     3.286000000     4.202000000
O    -2.367000000     5.486000000     2.966000000
H    -1.904000000     6.106000000     3.530000000
H    -1.695000000     5.156000000     2.370000000
O    -3.120000000    -5.901000000     1.096000000
H    -3.315000000    -5.464000000     1.925000000
H    -3.770000000    -5.554000000     0.484000000
O    -4.102000000    -4.512000000     3.144000000
H    -3.506000000    -3.792000000     3.348000000
H    -4.495000000    -4.743000000     3.986000000
O     2.326000000    -5.164000000     2.538000000
H     3.007000000    -5.592000000     3.057000000
H     2.519000000    -4.230000000     2.613000000
O    -1.750000000    -4.114000000    -1.423000000
H    -1.357000000    -4.244000000    -0.560000000
H    -2.277000000    -3.320000000    -1.329000000
O    -5.926000000     1.607000000    -0.813000000
H    -5.899000000     1.937000000     0.085000000
H    -5.008000000     1.462000000    -1.043000000
O     2.945000000     5.005000000    -5.621000000
H     3.061000000     5.536000000    -6.408000000
H     2.975000000     4.101000000    -5.935000000
O     4.676000000    -1.240000000    -3.496000000
H     3.720000000    -1.246000000    -3.533000000
H     4.949000000    -1.723000000    -4.276000000
O     3.752000000    -4.293000000    -2.279000000
H     3.785000000    -4.134000000    -1.336000000
H     3.950000000    -5.225000000    -2.372000000
O    -2.644000000    -1.991000000     4.625000000
H    -1.701000000    -1.859000000     4.721000000
H    -2.917000000    -1.318000000     4.001000000
O     0.080000000     4.504000000     0.252000000
H     0.304000000     5.148000000    -0.420000000
H    -0.657000000     4.018000000    -0.118000000
O     0.488000000    -4.767000000    -2.776000000
H    -0.234000000    -4.370000000    -2.288000000
H     0.979000000    -5.260000000    -2.118000000
O    -2.779000000     3.627000000    -3.298000000
H    -3.295000000     2.951000000    -3.737000000
H    -1.875000000     3.321000000    -3.366000000
O     2.628000000    -2.522000000     2.721000000
H     2.048000000    -2.207000000     3.414000000
H     2.691000000    -1.788000000     2.110000000
O     2.546000000     1.727000000     3.443000000
H     1.677000000     2.044000000     3.198000000
H     2.815000000     1.175000000     2.708000000
O    -0.142000000    -4.738000000     0.832000000
H     0.628000000    -4.349000000     1.247000000
H    -0.034000000    -5.680000000     0.961000000
O     0.121000000     2.273000000    -7.842000000
H     0.283000000     3.217000000    -7.863000000
H     0.554000000     1.974000000    -7.042000000
O     3.867000000    -1.688000000    -0.662000000
H     4.077000000    -1.512000000    -1.579000000
H     4.542000000    -2.304000000    -0.377000000
O     1.077000000     4.275000000     2.772000000
H     0.825000000     4.259000000     1.849000000
H     1.516000000     5.118000000     2.885000000
O     0.052000000    -2.334000000    -3.968000000
H     0.266000000    -3.213000000    -3.655000000
H     0.717000000    -1.771000000    -3.572000000
O    -4.720000000     2.374000000     1.619000000
H    -4.650000000     1.745000000     2.336000000
H    -5.326000000     3.040000000     1.942000000
