144
-2823.06895
O    -2.875000000    -0.547000000    -4.938000000
H    -2.932000000     0.257000000    -5.454000000
H    -3.705000000    -0.587000000    -4.464000000
O     2.388000000     2.955000000    -4.666000000
H     3.332000000     2.871000000    -4.532000000
H     2.061000000     2.056000000    -4.633000000
O    -0.682000000    -3.834000000     1.484000000
H     0.162000000    -3.914000000     1.929000000
H    -1.292000000    -3.573000000     2.173000000
O    -6.024000000     2.418000000    -2.719000000
H    -5.847000000     2.907000000    -1.916000000
H    -5.362000000     2.726000000    -3.338000000
O    -4.494000000     2.134000000     2.131000000
H    -4.004000000     1.780000000     2.873000000
H    -4.393000000     1.477000000     1.442000000
O    -0.375000000     1.769000000     3.497000000
H     0.401000000     1.243000000     3.689000000
H    -0.092000000     2.369000000     2.807000000
O     3.088000000     4.023000000     0.399000000
H     3.313000000     3.839000000    -0.513000000
H     3.849000000     3.725000000     0.898000000
O     5.246000000    -4.645000000     5.027000000
H     6.148000000    -4.916000000     5.201000000
H     5.310000000    -4.085000000     4.254000000
O     5.760000000     0.055000000     0.660000000
H     6.513000000    -0.111000000     0.093000000
H     5.090000000    -0.557000000     0.353000000
O     5.280000000     0.638000000     3.051000000
H     5.387000000     0.315000000     2.156000000
H     4.621000000     0.061000000     3.437000000
O    -2.887000000     1.157000000     4.149000000
H    -1.984000000     1.348000000     3.897000000
H    -2.849000000     0.282000000     4.535000000
O    -6.164000000     4.472000000    -0.804000000
H    -5.400000000     4.882000000    -0.400000000
H    -6.855000000     4.550000000    -0.146000000
O     4.713000000    -3.423000000    -1.253000000
H     4.087000000    -4.080000000    -1.559000000
H     4.168000000    -2.716000000    -0.906000000
O    -0.392000000    -1.877000000     4.778000000
H     0.537000000    -1.703000000     4.629000000
H    -0.404000000    -2.556000000     5.453000000
O    -0.385000000    -1.600000000    -3.696000000
H    -0.611000000    -1.237000000    -2.839000000
H    -1.180000000    -1.495000000    -4.218000000
O     1.896000000    -3.105000000    -4.206000000
H     1.112000000    -2.556000000    -4.188000000
H     2.577000000    -2.563000000    -3.807000000
O    -4.514000000    -1.979000000     2.124000000
H    -4.826000000    -2.830000000     1.819000000
H    -4.627000000    -1.398000000     1.371000000
O     2.375000000     3.734000000     3.974000000
H     2.014000000     3.118000000     3.336000000
H     1.993000000     4.578000000     3.735000000
O    -5.765000000    -0.665000000     0.024000000
H    -5.073000000    -0.821000000    -0.619000000
H    -6.577000000    -0.856000000    -0.447000000
O    -5.546000000    -0.789000000     4.242000000
H    -4.812000000    -0.730000000     4.854000000
H    -5.194000000    -1.267000000     3.491000000
O    -3.810000000     5.695000000    -0.125000000
H    -3.840000000     6.022000000     0.774000000
H    -2.989000000     5.204000000    -0.174000000
O    -5.095000000     0.065000000    -3.443000000
H    -5.512000000     0.843000000    -3.075000000
H    -5.762000000    -0.319000000    -4.013000000
O     3.316000000    -6.112000000     0.743000000
H     2.718000000    -6.391000000     0.050000000
H     2.902000000    -5.336000000     1.119000000
O    -0.125000000     3.187000000    -6.239000000
H     0.340000000     2.444000000    -5.854000000
H     0.181000000     3.945000000    -5.739000000
O     1.991000000    -3.919000000     2.132000000
H     2.409000000    -3.107000000     1.846000000
H     2.156000000    -3.955000000     3.074000000
O    -1.473000000     4.544000000    -0.633000000
H    -0.855000000     4.167000000    -0.007000000
H    -1.401000000     3.984000000    -1.407000000
O     6.222000000     1.232000000    -2.936000000
H     5.802000000     0.812000000    -3.687000000
H     6.696000000     0.524000000    -2.499000000
O     5.648000000    -5.668000000     1.987000000
H     5.423000000    -4.794000000     2.306000000
H     4.884000000    -5.942000000     1.479000000
O    -2.655000000    -3.952000000     3.343000000
H    -2.866000000    -3.680000000     4.236000000
H    -3.288000000    -3.488000000     2.795000000
O     2.347000000    -1.555000000     4.239000000
H     2.928000000    -2.147000000     4.717000000
H     2.637000000    -1.619000000     3.329000000
O     4.070000000    -0.980000000    -5.794000000
H     3.139000000    -0.931000000    -6.011000000
H     4.121000000    -0.678000000    -4.886000000
O    -3.850000000    -2.156000000    -1.093000000
H    -4.046000000    -2.385000000    -2.002000000
H    -2.989000000    -2.540000000    -0.930000000
O    -7.382000000     2.144000000     0.792000000
H    -6.623000000     2.640000000     0.486000000
H    -7.418000000     2.317000000     1.733000000
O     1.954000000     0.968000000     4.701000000
H     2.071000000     0.019000000     4.646000000
H     2.640000000     1.260000000     5.301000000
O     0.750000000     3.828000000    -2.510000000
H     1.451000000     3.258000000    -2.828000000
H     0.472000000     4.320000000    -3.283000000
O     5.416000000    -2.817000000     3.088000000
H     6.289000000    -2.702000000     2.713000000
H     4.837000000    -2.329000000     2.502000000
O    -0.908000000    -2.751000000    -0.998000000
H    -0.764000000    -3.114000000    -0.124000000
H    -0.496000000    -3.380000000    -1.590000000
O    -4.674000000     3.505000000    -4.634000000
H    -4.264000000     2.812000000    -5.152000000
H    -5.482000000     3.709000000    -5.105000000
O     0.598000000     0.545000000    -5.235000000
H     0.237000000    -0.202000000    -4.758000000
H     0.698000000     0.229000000    -6.134000000
O    -3.234000000    -3.601000000    -3.628000000
H    -3.285000000    -2.723000000    -4.006000000
H    -4.145000000    -3.889000000    -3.566000000
O     5.502000000     3.123000000    -0.676000000
H     5.083000000     2.279000000    -0.511000000
H     6.294000000     2.906000000    -1.167000000
O    -6.348000000     4.154000000     2.641000000
H    -5.871000000     3.334000000     2.769000000
H    -5.665000000     4.810000000     2.500000000
O     6.729000000    -1.430000000    -1.576000000
H     6.457000000    -2.302000000    -1.289000000
H     7.404000000    -1.594000000    -2.234000000
O    -3.137000000    -1.150000000     5.716000000
H    -2.873000000    -1.020000000     6.627000000
H    -2.384000000    -1.575000000     5.307000000
O     0.531000000     3.005000000     1.083000000
H     1.409000000     3.303000000     0.846000000
H     0.432000000     2.168000000     0.630000000
O     3.983000000    -1.139000000    -2.879000000
H     3.923000000    -0.871000000    -1.963000000
H     4.703000000    -1.769000000    -2.898000000
O     2.592000000    -4.847000000    -2.102000000
H     2.074000000    -4.649000000    -2.882000000
H     2.002000000    -5.354000000    -1.545000000
O    -7.486000000    -0.105000000     2.313000000
H    -6.863000000    -0.077000000     1.587000000
H    -6.940000000    -0.201000000     3.093000000
