144
-2815.26834
O    -1.958000000     3.220000000    -4.691000000
H    -2.096000000     4.150000000    -4.514000000
H    -2.835000000     2.877000000    -4.868000000
O     7.314000000     1.632000000    -0.603000000
H     7.685000000     2.168000000     0.098000000
H     6.438000000     1.992000000    -0.741000000
O     0.528000000    -1.895000000    -2.862000000
H     0.885000000    -2.315000000    -2.079000000
H     0.718000000    -0.965000000    -2.742000000
O    -5.347000000     6.052000000    -0.578000000
H    -6.173000000     6.354000000    -0.203000000
H    -5.530000000     5.160000000    -0.874000000
O    -1.303000000    -1.495000000     5.124000000
H    -0.986000000    -1.222000000     5.984000000
H    -1.247000000    -0.705000000     4.586000000
O    -0.911000000     0.159000000     2.736000000
H    -0.762000000    -0.034000000     1.810000000
H    -0.422000000     0.966000000     2.894000000
O    -2.690000000    -3.645000000     1.530000000
H    -2.268000000    -2.907000000     1.090000000
H    -2.139000000    -4.398000000     1.317000000
O    -5.170000000     5.098000000    -3.570000000
H    -5.006000000     4.390000000    -2.948000000
H    -6.065000000     4.948000000    -3.874000000
O     5.786000000    -2.169000000     1.420000000
H     4.908000000    -1.790000000     1.460000000
H     6.164000000    -1.813000000     0.616000000
O    -5.215000000     4.415000000     1.789000000
H    -4.973000000     5.029000000     1.096000000
H    -5.959000000     4.829000000     2.227000000
O     4.079000000    -3.736000000    -3.000000000
H     4.289000000    -2.861000000    -2.674000000
H     4.717000000    -4.309000000    -2.575000000
O     0.559000000     2.297000000     3.597000000
H     0.425000000     2.994000000     2.954000000
H     1.492000000     2.343000000     3.808000000
O    -5.233000000     3.457000000    -1.444000000
H    -4.510000000     3.396000000    -0.820000000
H    -5.742000000     2.659000000    -1.301000000
O    -3.059000000    -3.492000000     4.494000000
H    -2.319000000    -2.986000000     4.829000000
H    -3.117000000    -3.249000000     3.570000000
O     3.358000000     5.225000000    -0.775000000
H     2.589000000     5.630000000    -1.177000000
H     3.303000000     5.471000000     0.148000000
O     2.133000000    -4.880000000     2.468000000
H     2.162000000    -4.084000000     1.938000000
H     1.927000000    -4.573000000     3.351000000
O    -3.478000000     2.555000000     3.196000000
H    -3.893000000     3.412000000     3.297000000
H    -3.710000000     2.280000000     2.309000000
O     1.651000000    -3.939000000    -1.357000000
H     2.067000000    -3.646000000    -0.547000000
H     2.376000000    -4.044000000    -1.974000000
O    -3.447000000    -4.049000000    -2.324000000
H    -4.218000000    -3.482000000    -2.310000000
H    -3.726000000    -4.844000000    -1.870000000
O     2.874000000     2.259000000    -4.983000000
H     3.584000000     1.751000000    -4.590000000
H     2.109000000     2.056000000    -4.445000000
O    -5.339000000    -4.810000000     2.566000000
H    -4.773000000    -5.534000000     2.833000000
H    -4.861000000    -4.382000000     1.855000000
O     5.616000000    -4.493000000     3.467000000
H     4.893000000    -4.912000000     2.999000000
H     5.662000000    -4.958000000     4.302000000
O     6.856000000    -1.112000000    -0.944000000
H     7.100000000    -0.189000000    -0.873000000
H     7.256000000    -1.403000000    -1.764000000
O     4.440000000    -4.499000000     0.467000000
H     5.377000000    -4.310000000     0.519000000
H     4.026000000    -3.794000000     0.965000000
O     0.746000000     6.059000000    -1.662000000
H     1.033000000     6.914000000    -1.982000000
H     0.860000000     5.472000000    -2.410000000
O     4.170000000    -1.039000000    -1.638000000
H     3.745000000    -1.020000000    -0.780000000
H     5.106000000    -1.073000000    -1.441000000
O     3.499000000     0.965000000     5.864000000
H     4.092000000     1.295000000     5.188000000
H     3.936000000     1.176000000     6.689000000
O     3.946000000     1.709000000     2.086000000
H     3.749000000     0.835000000     1.748000000
H     4.226000000     2.205000000     1.317000000
O    -4.673000000     2.311000000    -5.027000000
H    -5.255000000     3.021000000    -5.298000000
H    -5.235000000     1.716000000    -4.531000000
O     3.160000000     4.582000000     1.991000000
H     2.858000000     4.771000000     2.879000000
H     4.011000000     4.160000000     2.112000000
O    -6.931000000    -1.884000000     0.619000000
H    -7.656000000    -2.323000000     1.065000000
H    -6.564000000    -1.297000000     1.280000000
O    -1.726000000     3.316000000     4.947000000
H    -0.827000000     2.989000000     4.910000000
H    -2.162000000     2.902000000     4.202000000
O     8.005000000    -1.208000000     3.174000000
H     7.506000000    -1.191000000     3.991000000
H     7.347000000    -1.351000000     2.494000000
O    -6.676000000     1.102000000    -0.747000000
H    -7.139000000     1.277000000     0.072000000
H    -6.023000000     0.441000000    -0.515000000
O    -1.002000000    -5.615000000     1.364000000
H    -0.063000000    -5.512000000     1.208000000
H    -1.067000000    -6.379000000     1.937000000
O     1.306000000     4.600000000    -4.020000000
H     0.602000000     4.266000000    -4.576000000
H     1.816000000     3.824000000    -3.787000000
O     3.269000000    -0.335000000    -3.917000000
H     3.985000000    -0.798000000    -4.352000000
H     3.265000000    -0.684000000    -3.026000000
O     3.429000000    -6.482000000    -0.910000000
H     3.606000000    -5.727000000    -0.349000000
H     2.500000000    -6.407000000    -1.127000000
O    -1.164000000    -3.975000000    -3.765000000
H    -1.933000000    -3.900000000    -3.200000000
H    -0.589000000    -3.264000000    -3.482000000
O    -5.925000000    -0.042000000     2.424000000
H    -5.968000000     0.883000000     2.666000000
H    -6.051000000    -0.511000000     3.249000000
O     5.623000000     2.118000000     4.200000000
H     6.354000000     2.712000000     4.028000000
H     5.166000000     2.051000000     3.362000000
O     0.517000000     4.263000000     1.468000000
H     0.388000000     5.035000000     0.918000000
H     1.467000000     4.145000000     1.496000000
O     0.838000000     1.957000000    -3.409000000
H     0.281000000     2.225000000    -2.678000000
H     0.383000000     1.208000000    -3.793000000
O    -1.086000000     0.305000000    -4.495000000
H    -1.335000000    -0.321000000    -5.174000000
H    -1.388000000     1.150000000    -4.825000000
O     0.775000000    -3.340000000     4.275000000
H    -0.026000000    -3.637000000     3.842000000
H     0.544000000    -2.491000000     4.650000000
O    -2.591000000    -6.695000000    -1.181000000
H    -1.849000000    -6.094000000    -1.106000000
H    -2.550000000    -7.013000000    -2.082000000
O     5.268000000     3.322000000    -1.481000000
H     5.689000000     3.765000000    -2.219000000
H     4.500000000     3.859000000    -1.286000000
O     4.875000000    -1.881000000     4.308000000
H     4.227000000    -1.365000000     3.828000000
H     5.084000000    -2.608000000     3.721000000
