144
-2823.52033
O     0.462000000     1.465000000    -4.771000000
H     1.069000000     2.021000000    -4.282000000
H     0.413000000     0.657000000    -4.260000000
O     3.973000000     4.462000000    -1.278000000
H     4.472000000     5.098000000    -0.764000000
H     4.495000000     4.331000000    -2.069000000
O    -3.421000000    -2.140000000    -3.352000000
H    -3.067000000    -2.922000000    -2.928000000
H    -4.293000000    -2.034000000    -2.970000000
O    -1.856000000     0.717000000     4.183000000
H    -1.008000000     1.031000000     3.870000000
H    -2.494000000     1.131000000     3.601000000
O    -4.694000000    -4.004000000     2.041000000
H    -4.922000000    -3.215000000     2.534000000
H    -5.109000000    -3.882000000     1.188000000
O    -3.910000000     3.293000000    -4.578000000
H    -4.691000000     3.811000000    -4.772000000
H    -4.226000000     2.586000000    -4.014000000
O     5.816000000     0.790000000    -2.463000000
H     6.744000000     0.837000000    -2.693000000
H     5.674000000    -0.127000000    -2.227000000
O     4.774000000    -1.811000000     2.914000000
H     4.370000000    -1.746000000     2.049000000
H     4.087000000    -2.171000000     3.474000000
O    -5.942000000     3.652000000     2.532000000
H    -5.347000000     4.345000000     2.818000000
H    -6.536000000     3.525000000     3.272000000
O     2.825000000    -2.605000000     5.635000000
H     3.429000000    -1.931000000     5.946000000
H     1.978000000    -2.358000000     6.007000000
O    -4.282000000     5.850000000     3.094000000
H    -3.683000000     5.122000000     3.260000000
H    -3.709000000     6.598000000     2.925000000
O     0.244000000     1.525000000     2.590000000
H     0.256000000     0.731000000     2.056000000
H     1.141000000     1.858000000     2.545000000
O    -6.125000000     2.716000000    -0.439000000
H    -6.021000000     3.367000000     0.255000000
H    -5.383000000     2.871000000    -1.025000000
O    -2.570000000    -2.069000000     4.102000000
H    -2.231000000    -1.208000000     4.350000000
H    -3.365000000    -1.879000000     3.605000000
O    -1.809000000    -4.677000000     5.516000000
H    -1.559000000    -3.760000000     5.398000000
H    -2.411000000    -4.856000000     4.793000000
O    -1.369000000     4.889000000    -1.757000000
H    -1.246000000     4.749000000    -0.818000000
H    -1.996000000     5.610000000    -1.811000000
O     0.373000000    -4.467000000     0.398000000
H     0.983000000    -3.791000000     0.693000000
H    -0.414000000    -4.326000000     0.925000000
O    -2.305000000    -3.813000000    -1.614000000
H    -1.508000000    -3.569000000    -1.143000000
H    -2.784000000    -4.372000000    -1.002000000
O    -3.767000000     1.445000000     2.316000000
H    -4.485000000     2.077000000     2.355000000
H    -3.353000000     1.606000000     1.468000000
O    -5.555000000    -1.021000000    -1.968000000
H    -6.428000000    -0.785000000    -2.281000000
H    -5.712000000    -1.698000000    -1.310000000
O     5.764000000    -4.912000000     3.438000000
H     5.853000000    -5.865000000     3.430000000
H     5.302000000    -4.708000000     2.625000000
O     7.365000000    -1.805000000     1.282000000
H     7.863000000    -1.104000000     0.861000000
H     6.817000000    -1.356000000     1.926000000
O     1.543000000    -4.156000000     3.232000000
H     1.882000000    -3.692000000     3.996000000
H     1.841000000    -3.638000000     2.484000000
O    -6.866000000     0.428000000     1.673000000
H    -6.625000000     0.756000000     0.807000000
H    -7.254000000     1.183000000     2.115000000
O     1.202000000     5.145000000    -2.672000000
H     0.389000000     4.975000000    -2.197000000
H     1.681000000     4.317000000    -2.630000000
O     3.672000000    -2.283000000    -4.005000000
H     4.019000000    -2.411000000    -3.122000000
H     3.969000000    -1.408000000    -4.255000000
O     4.562000000    -4.235000000     0.944000000
H     3.883000000    -3.587000000     1.133000000
H     4.102000000    -4.938000000     0.485000000
O    -6.040000000    -2.988000000    -0.155000000
H    -6.112000000    -3.766000000    -0.709000000
H    -6.929000000    -2.844000000     0.171000000
O     4.947000000     1.039000000     0.757000000
H     4.557000000     0.165000000     0.753000000
H     5.447000000     1.082000000    -0.058000000
O    -1.285000000     4.425000000    -4.514000000
H    -1.166000000     4.537000000    -3.571000000
H    -2.062000000     3.870000000    -4.593000000
O     1.608000000    -6.769000000     3.349000000
H     2.099000000    -6.954000000     2.549000000
H     1.511000000    -5.816000000     3.356000000
O    -4.198000000     0.741000000    -3.533000000
H    -4.637000000     0.485000000    -2.721000000
H    -3.810000000    -0.070000000    -3.861000000
O     1.769000000     4.533000000     0.783000000
H     2.143000000     3.856000000     1.347000000
H     2.251000000     4.452000000    -0.040000000
O    -1.656000000     4.501000000     3.593000000
H    -1.721000000     5.093000000     4.342000000
H    -1.199000000     3.733000000     3.934000000
O    -1.642000000     1.908000000    -6.456000000
H    -0.822000000     1.910000000    -5.962000000
H    -2.320000000     2.060000000    -5.797000000
O     6.988000000    -0.742000000     4.185000000
H     7.559000000    -1.503000000     4.074000000
H     6.237000000    -0.921000000     3.620000000
O     1.248000000    -5.487000000    -2.046000000
H     0.937000000    -5.073000000    -1.241000000
H     0.874000000    -6.368000000    -2.021000000
O     2.535000000     2.488000000    -2.936000000
H     3.040000000     2.476000000    -3.749000000
H     3.191000000     2.602000000    -2.248000000
O     3.528000000    -6.006000000    -0.923000000
H     2.825000000    -5.676000000    -1.482000000
H     3.785000000    -6.836000000    -1.326000000
O     6.737000000     2.355000000     2.457000000
H     6.195000000     2.042000000     1.733000000
H     7.557000000     1.869000000     2.370000000
O    -4.655000000    -1.159000000     2.658000000
H    -4.192000000    -0.354000000     2.427000000
H    -5.572000000    -0.975000000     2.457000000
O    -0.832000000     5.482000000     1.119000000
H     0.119000000     5.452000000     1.222000000
H    -1.174000000     5.178000000     1.959000000
O     0.381000000    -1.168000000    -3.761000000
H     0.571000000    -1.075000000    -2.827000000
H     0.961000000    -1.871000000    -4.054000000
O    -1.589000000    -2.324000000    -5.653000000
H    -1.236000000    -1.795000000    -4.937000000
H    -2.516000000    -2.429000000    -5.438000000
O    -1.901000000    -3.778000000     2.046000000
H    -2.011000000    -3.114000000     2.726000000
H    -2.772000000    -4.162000000     1.943000000
O    -1.164000000    -6.739000000     1.876000000
H    -1.611000000    -5.901000000     1.990000000
H    -0.406000000    -6.688000000     2.458000000
O     4.828000000    -1.680000000    -1.610000000
H     5.564000000    -2.216000000    -1.316000000
H     4.301000000    -1.545000000    -0.822000000
O     2.953000000     1.681000000     3.160000000
H     3.382000000     2.535000000     3.214000000
H     3.517000000     1.166000000     2.582000000
