144
-2781.08698
O    -5.297000000     0.336000000     4.008000000
H    -4.852000000     1.146000000     3.759000000
H    -4.588000000    -0.279000000     4.196000000
O     3.084000000     5.310000000     1.967000000
H     3.011000000     4.356000000     1.939000000
H     3.703000000     5.523000000     1.268000000
O     2.750000000    -3.676000000     1.556000000
H     2.002000000    -3.080000000     1.584000000
H     3.437000000    -3.177000000     1.113000000
O    -3.171000000    -1.336000000     4.727000000
H    -3.557000000    -1.712000000     5.517000000
H    -2.389000000    -0.877000000     5.036000000
O     1.034000000     3.088000000     4.260000000
H     1.550000000     2.374000000     3.884000000
H     0.219000000     3.083000000     3.758000000
O    -1.047000000     6.647000000    -2.366000000
H    -1.148000000     5.724000000    -2.599000000
H    -1.902000000     6.900000000    -2.018000000
O    -3.565000000     2.141000000    -6.447000000
H    -3.988000000     2.399000000    -7.266000000
H    -2.667000000     2.463000000    -6.530000000
O    -0.603000000    -3.361000000     3.915000000
H    -0.988000000    -3.490000000     3.048000000
H    -0.275000000    -2.462000000     3.899000000
O     4.757000000    -2.010000000     0.206000000
H     5.238000000    -2.732000000    -0.198000000
H     4.392000000    -1.523000000    -0.532000000
O    -1.798000000     3.136000000     3.051000000
H    -2.284000000     2.477000000     2.555000000
H    -2.030000000     2.968000000     3.964000000
O     3.641000000     4.090000000    -1.101000000
H     4.472000000     4.309000000    -1.523000000
H     3.049000000     4.798000000    -1.355000000
O    -0.917000000     4.460000000    -0.258000000
H    -0.192000000     5.077000000    -0.348000000
H    -0.677000000     3.915000000     0.492000000
O    -5.032000000    -0.498000000    -5.471000000
H    -4.428000000     0.236000000    -5.366000000
H    -5.096000000    -0.622000000    -6.418000000
O     2.753000000    -2.408000000     4.949000000
H     2.362000000    -2.257000000     5.810000000
H     2.009000000    -2.588000000     4.375000000
O    -3.501000000     2.650000000    -2.009000000
H    -4.100000000     2.513000000    -1.276000000
H    -3.166000000     1.776000000    -2.212000000
O     4.732000000     2.143000000     0.649000000
H     4.284000000     2.577000000    -0.077000000
H     5.465000000     2.721000000     0.859000000
O    -0.925000000     2.144000000    -6.068000000
H    -0.322000000     2.858000000    -5.859000000
H    -0.510000000     1.364000000    -5.699000000
O    -4.631000000    -0.956000000     0.651000000
H    -4.423000000    -1.610000000    -0.016000000
H    -4.474000000    -1.403000000     1.483000000
O    -5.186000000    -4.627000000     0.877000000
H    -4.881000000    -5.482000000     1.180000000
H    -4.485000000    -4.023000000     1.120000000
O     5.247000000    -2.147000000    -5.358000000
H     4.539000000    -2.025000000    -4.725000000
H     4.876000000    -2.726000000    -6.024000000
O     1.441000000     3.186000000    -4.276000000
H     2.266000000     3.662000000    -4.372000000
H     1.636000000     2.304000000    -4.592000000
O    -3.491000000    -3.080000000     2.475000000
H    -3.880000000    -3.790000000     2.986000000
H    -3.196000000    -2.448000000     3.131000000
O     5.819000000     0.190000000     5.155000000
H     5.809000000    -0.436000000     4.431000000
H     5.168000000     0.848000000     4.911000000
O     1.463000000     6.098000000    -1.501000000
H     0.653000000     6.133000000    -2.009000000
H     1.966000000     6.856000000    -1.799000000
O     1.129000000    -1.448000000     7.332000000
H     0.215000000    -1.414000000     7.613000000
H     1.489000000    -2.213000000     7.782000000
O    -3.821000000    -2.771000000    -1.750000000
H    -4.425000000    -3.418000000    -2.114000000
H    -2.958000000    -3.179000000    -1.828000000
O    -1.023000000     0.224000000     5.436000000
H    -0.416000000    -0.012000000     4.734000000
H    -1.187000000     1.158000000     5.307000000
O    -1.695000000    -0.098000000     8.497000000
H    -2.394000000     0.521000000     8.289000000
H    -0.943000000     0.212000000     7.992000000
O     3.248000000    -0.509000000    -1.477000000
H     2.442000000    -0.093000000    -1.173000000
H     3.788000000     0.216000000    -1.791000000
O     5.141000000    -2.312000000     3.358000000
H     4.877000000    -1.807000000     2.588000000
H     4.333000000    -2.427000000     3.858000000
O    -5.687000000     1.402000000     0.341000000
H    -5.407000000     0.493000000     0.447000000
H    -6.572000000     1.340000000    -0.020000000
O     2.636000000     0.595000000     6.243000000
H     2.040000000    -0.115000000     6.483000000
H     2.437000000     0.775000000     5.324000000
O     0.174000000    -3.360000000    -4.592000000
H    -0.701000000    -3.101000000    -4.303000000
H     0.142000000    -4.316000000    -4.624000000
O    -1.558000000    -3.974000000    -2.151000000
H    -1.688000000    -4.772000000    -2.664000000
H    -0.609000000    -3.855000000    -2.127000000
O     3.085000000    -2.287000000    -3.637000000
H     3.278000000    -1.957000000    -2.759000000
H     2.132000000    -2.229000000    -3.710000000
O     1.795000000    -3.114000000    -7.225000000
H     1.294000000    -2.953000000    -6.425000000
H     2.277000000    -3.921000000    -7.047000000
O     7.045000000     0.192000000     1.600000000
H     6.106000000     0.029000000     1.688000000
H     7.111000000     1.133000000     1.435000000
O    -5.557000000    -0.623000000    -2.811000000
H    -4.781000000    -1.035000000    -2.431000000
H    -5.399000000    -0.640000000    -3.755000000
O     2.269000000     0.863000000    -5.759000000
H     2.407000000     0.474000000    -6.623000000
H     3.119000000     1.234000000    -5.525000000
O    -0.900000000     3.981000000    -3.253000000
H    -0.017000000     3.611000000    -3.219000000
H    -1.475000000     3.246000000    -3.041000000
O     4.281000000     3.020000000     6.661000000
H     3.595000000     3.493000000     6.189000000
H     4.005000000     2.104000000     6.629000000
O     3.914000000     0.285000000     2.379000000
H     3.056000000     0.497000000     2.748000000
H     4.071000000     0.970000000     1.730000000
O    -3.283000000     1.472000000     1.693000000
H    -3.168000000     0.548000000     1.473000000
H    -4.016000000     1.758000000     1.147000000
O     1.426000000     3.348000000     7.023000000
H     1.397000000     3.769000000     6.164000000
H     1.379000000     2.411000000     6.832000000
O     6.466000000    -0.403000000    -1.992000000
H     5.716000000     0.141000000    -1.750000000
H     6.655000000    -0.160000000    -2.898000000
O    -4.149000000     5.017000000    -3.061000000
H    -3.911000000     4.198000000    -2.626000000
H    -3.852000000     5.702000000    -2.461000000
O    -1.735000000    -5.309000000     5.584000000
H    -1.335000000    -4.850000000     6.323000000
H    -1.483000000    -4.793000000     4.818000000
O     4.434000000     1.443000000    -3.166000000
H     5.259000000     1.684000000    -3.589000000
H     3.855000000     2.187000000    -3.329000000
