144
-2824.40690
O     0.339000000     4.405000000     5.926000000
H    -0.329000000     3.783000000     5.638000000
H     1.124000000     4.158000000     5.436000000
O     2.759000000    -2.730000000     2.535000000
H     2.959000000    -3.266000000     1.767000000
H     3.476000000    -2.097000000     2.578000000
O     1.856000000     3.593000000     3.716000000
H     2.207000000     4.161000000     3.031000000
H     2.156000000     2.716000000     3.478000000
O    -4.350000000     1.984000000    -5.624000000
H    -4.239000000     1.151000000    -6.082000000
H    -4.112000000     1.793000000    -4.717000000
O    -3.674000000     4.606000000    -0.849000000
H    -3.739000000     5.363000000    -1.432000000
H    -2.734000000     4.492000000    -0.708000000
O     0.382000000     3.536000000    -6.389000000
H    -0.489000000     3.464000000    -6.000000000
H     0.222000000     3.560000000    -7.332000000
O     2.348000000     2.028000000     7.230000000
H     1.423000000     1.804000000     7.128000000
H     2.744000000     1.799000000     6.389000000
O     0.675000000    -4.610000000     3.058000000
H     1.510000000    -4.398000000     2.641000000
H     0.496000000    -3.863000000     3.628000000
O     4.602000000    -1.071000000     0.112000000
H     5.213000000    -1.587000000    -0.414000000
H     3.829000000    -0.976000000    -0.444000000
O    -1.465000000     2.493000000     4.016000000
H    -1.589000000     2.294000000     3.088000000
H    -1.495000000     3.448000000     4.062000000
O     2.259000000     6.636000000     0.213000000
H     2.919000000     6.242000000    -0.358000000
H     2.137000000     7.519000000    -0.136000000
O    -2.925000000    -2.587000000    -5.191000000
H    -2.826000000    -1.722000000    -5.588000000
H    -3.594000000    -2.465000000    -4.517000000
O     2.317000000    -2.146000000     5.497000000
H     3.105000000    -2.562000000     5.149000000
H     2.051000000    -1.528000000     4.816000000
O    -5.250000000    -2.564000000     4.034000000
H    -5.679000000    -3.280000000     3.564000000
H    -4.400000000    -2.471000000     3.605000000
O    -3.763000000     2.219000000    -2.775000000
H    -3.530000000     1.318000000    -2.554000000
H    -4.356000000     2.492000000    -2.074000000
O     3.692000000     4.040000000     1.483000000
H     4.433000000     4.487000000     1.073000000
H     3.935000000     3.115000000     1.473000000
O     2.069000000    -4.476000000    -2.136000000
H     1.465000000    -3.796000000    -2.436000000
H     2.647000000    -4.630000000    -2.883000000
O    -2.372000000     4.040000000    -3.887000000
H    -1.830000000     4.301000000    -3.143000000
H    -3.048000000     3.480000000    -3.506000000
O    -3.989000000    -1.579000000     0.363000000
H    -4.111000000    -2.487000000     0.085000000
H    -3.445000000    -1.641000000     1.148000000
O     0.020000000    -3.601000000    -5.488000000
H    -0.885000000    -3.432000000    -5.224000000
H     0.072000000    -4.553000000    -5.570000000
O     1.502000000    -0.007000000    -5.157000000
H     1.837000000     0.614000000    -4.510000000
H     2.067000000     0.112000000    -5.920000000
O    -2.658000000    -2.836000000     2.493000000
H    -2.512000000    -3.782000000     2.476000000
H    -2.007000000    -2.504000000     3.111000000
O    -3.883000000     2.221000000     2.010000000
H    -3.599000000     1.786000000     1.206000000
H    -3.337000000     3.005000000     2.065000000
O     6.069000000     2.063000000     4.175000000
H     6.773000000     1.739000000     4.735000000
H     6.466000000     2.133000000     3.307000000
O     1.031000000    -1.117000000     7.617000000
H     1.651000000    -1.377000000     6.936000000
H     0.805000000    -0.212000000     7.402000000
O    -4.248000000    -4.252000000    -0.282000000
H    -5.176000000    -4.115000000    -0.472000000
H    -4.202000000    -5.148000000     0.053000000
O    -1.589000000    -5.400000000     1.688000000
H    -0.737000000    -5.184000000     2.066000000
H    -1.664000000    -6.349000000     1.792000000
O    -2.734000000     0.168000000     4.697000000
H    -3.109000000    -0.167000000     3.883000000
H    -2.215000000     0.925000000     4.427000000
O    -1.277000000    -2.562000000     7.254000000
H    -0.634000000    -1.868000000     7.401000000
H    -0.763000000    -3.369000000     7.258000000
O     2.469000000    -0.704000000    -1.413000000
H     2.129000000    -1.340000000    -2.042000000
H     1.709000000    -0.173000000    -1.174000000
O     5.885000000    -1.617000000     2.616000000
H     6.693000000    -1.965000000     2.237000000
H     5.638000000    -0.898000000     2.035000000
O     3.947000000     0.510000000     5.030000000
H     4.508000000     1.227000000     4.734000000
H     3.200000000     0.528000000     4.431000000
O     1.409000000    -2.217000000    -3.607000000
H     1.561000000    -1.360000000    -4.006000000
H     0.924000000    -2.707000000    -4.270000000
O    -1.085000000    -4.373000000    -1.099000000
H    -0.995000000    -4.343000000    -0.147000000
H    -1.999000000    -4.140000000    -1.261000000
O    -1.694000000     4.919000000     2.690000000
H    -0.959000000     4.869000000     2.079000000
H    -1.994000000     5.826000000     2.630000000
O    -4.744000000    -0.904000000    -2.461000000
H    -4.218000000    -0.915000000    -1.661000000
H    -5.067000000    -1.800000000    -2.548000000
O     0.406000000    -6.636000000    -1.355000000
H     1.125000000    -6.014000000    -1.469000000
H    -0.379000000    -6.090000000    -1.316000000
O    -0.515000000    -0.907000000    -6.778000000
H    -0.324000000    -0.362000000    -6.015000000
H    -0.191000000    -1.775000000    -6.540000000
O    -1.298000000     5.684000000    -1.949000000
H    -0.679000000     6.180000000    -2.485000000
H    -1.887000000     6.347000000    -1.587000000
O     4.437000000     2.245000000    -1.736000000
H     4.151000000     2.249000000    -0.823000000
H     5.281000000     2.697000000    -1.724000000
O     5.008000000     4.592000000     4.918000000
H     5.658000000     5.004000000     4.348000000
H     4.892000000     3.715000000     4.553000000
O     1.139000000    -4.039000000     7.149000000
H     1.849000000    -3.835000000     7.758000000
H     1.328000000    -3.511000000     6.373000000
O     4.132000000     1.398000000     1.257000000
H     3.492000000     1.309000000     1.963000000
H     4.299000000     0.501000000     0.970000000
O    -0.023000000     4.667000000     0.604000000
H     0.920000000     4.753000000     0.463000000
H    -0.411000000     4.869000000    -0.247000000
O     0.100000000     0.976000000     6.056000000
H     0.646000000     0.576000000     5.380000000
H    -0.568000000     1.460000000     5.569000000
O     5.872000000    -0.613000000     6.664000000
H     5.286000000    -1.132000000     7.215000000
H     5.293000000    -0.191000000     6.029000000
O    -0.711000000    -2.419000000     4.369000000
H    -0.983000000    -2.362000000     5.285000000
H    -0.069000000    -1.717000000     4.266000000
O     2.447000000     2.016000000    -3.720000000
H     3.072000000     2.141000000    -3.006000000
H     1.755000000     2.653000000    -3.547000000
