144
-2815.56934
O     5.613000000    -3.628000000     1.078000000
H     5.367000000    -4.230000000     0.375000000
H     4.779000000    -3.301000000     1.416000000
O     3.646000000    -4.318000000     4.054000000
H     2.751000000    -4.601000000     4.242000000
H     3.851000000    -3.695000000     4.752000000
O     3.759000000     2.432000000     3.111000000
H     4.464000000     1.800000000     3.250000000
H     2.964000000     1.899000000     3.075000000
O     4.661000000     0.296000000    -4.586000000
H     4.357000000     0.558000000    -3.718000000
H     3.919000000    -0.175000000    -4.968000000
O    -2.397000000     6.080000000     0.709000000
H    -2.136000000     5.272000000     0.267000000
H    -3.345000000     5.999000000     0.815000000
O     2.308000000    -0.611000000    -6.153000000
H     1.708000000     0.088000000    -5.896000000
H     2.263000000    -0.627000000    -7.109000000
O     2.250000000     2.929000000     6.919000000
H     2.691000000     2.095000000     6.756000000
H     2.961000000     3.558000000     7.035000000
O     6.727000000     0.102000000     1.243000000
H     5.996000000    -0.036000000     1.845000000
H     7.373000000    -0.558000000     1.496000000
O    -1.186000000    -2.308000000    -4.376000000
H    -0.669000000    -2.314000000    -3.571000000
H    -0.903000000    -1.518000000    -4.837000000
O     2.114000000     2.265000000    -3.760000000
H     1.578000000     2.099000000    -4.535000000
H     1.605000000     2.892000000    -3.246000000
O    -0.138000000     6.333000000    -3.566000000
H    -0.979000000     5.878000000    -3.604000000
H     0.144000000     6.393000000    -4.479000000
O     2.293000000    -0.169000000    -2.171000000
H     2.199000000     0.633000000    -2.686000000
H     3.221000000    -0.392000000    -2.245000000
O    -4.631000000     0.335000000    -0.543000000
H    -4.762000000    -0.150000000     0.272000000
H    -4.132000000     1.110000000    -0.284000000
O     0.396000000    -2.904000000     5.418000000
H     0.708000000    -2.555000000     4.583000000
H    -0.205000000    -2.237000000     5.747000000
O     4.771000000     4.055000000     0.683000000
H     4.725000000     4.520000000    -0.152000000
H     4.419000000     3.185000000     0.492000000
O    -3.644000000    -2.264000000     4.689000000
H    -4.330000000    -1.730000000     5.091000000
H    -2.831000000    -1.802000000     4.895000000
O    -3.210000000     1.600000000    -7.308000000
H    -2.743000000     0.764000000    -7.309000000
H    -3.203000000     1.876000000    -6.391000000
O    -1.469000000     4.373000000    -1.073000000
H    -0.556000000     4.277000000    -1.345000000
H    -1.977000000     4.095000000    -1.835000000
O     2.488000000     6.107000000     1.090000000
H     2.819000000     5.209000000     1.050000000
H     3.273000000     6.653000000     1.056000000
O     1.139000000    -5.391000000     4.659000000
H     0.344000000    -5.916000000     4.563000000
H     0.876000000    -4.660000000     5.218000000
O    -3.344000000    -2.490000000     0.409000000
H    -4.117000000    -2.011000000     0.708000000
H    -2.606000000    -1.935000000     0.661000000
O    -1.315000000    -0.388000000    -6.304000000
H    -2.205000000    -0.680000000    -6.103000000
H    -1.094000000    -0.839000000    -7.119000000
O    -1.137000000     3.454000000     5.179000000
H    -1.195000000     4.274000000     4.689000000
H    -0.779000000     3.709000000     6.029000000
O    -3.138000000    -5.118000000     3.976000000
H    -2.614000000    -4.934000000     3.197000000
H    -3.622000000    -4.308000000     4.137000000
O    -0.018000000    -6.227000000     0.964000000
H     0.222000000    -5.732000000     0.180000000
H    -0.352000000    -5.566000000     1.571000000
O     1.770000000    -4.477000000    -0.378000000
H     2.238000000    -4.213000000     0.415000000
H     2.458000000    -4.776000000    -0.973000000
O    -2.536000000     0.290000000     1.762000000
H    -2.069000000     0.481000000     0.948000000
H    -1.901000000     0.480000000     2.453000000
O     3.591000000     1.995000000    -0.571000000
H     4.030000000     1.177000000    -0.802000000
H     2.683000000     1.740000000    -0.403000000
O    -5.084000000    -1.104000000    -3.121000000
H    -4.986000000    -0.345000000    -2.546000000
H    -4.903000000    -1.856000000    -2.557000000
O    -3.586000000     2.376000000    -4.243000000
H    -3.799000000     2.907000000    -3.476000000
H    -4.436000000     2.160000000    -4.628000000
O    -1.771000000    -5.162000000    -1.403000000
H    -1.410000000    -4.615000000    -2.100000000
H    -1.182000000    -5.916000000    -1.359000000
O     0.510000000     1.845000000    -5.854000000
H     0.319000000     2.541000000    -6.483000000
H    -0.242000000     1.256000000    -5.913000000
O     2.930000000    -3.335000000     1.864000000
H     2.187000000    -2.795000000     2.133000000
H     3.227000000    -3.754000000     2.672000000
O     2.357000000    -0.267000000     5.827000000
H     2.140000000    -0.310000000     4.896000000
H     1.584000000     0.123000000     6.236000000
O     1.057000000    -2.589000000    -2.712000000
H     1.441000000    -1.720000000    -2.591000000
H     1.119000000    -3.000000000    -1.850000000
O    -0.609000000    -4.415000000     2.632000000
H    -0.195000000    -3.553000000     2.589000000
H    -0.015000000    -4.939000000     3.168000000
O     2.323000000    -4.325000000    -4.730000000
H     2.333000000    -5.161000000    -4.264000000
H     1.677000000    -3.796000000    -4.261000000
O     0.143000000     5.379000000     3.022000000
H     1.061000000     5.355000000     2.754000000
H    -0.165000000     6.242000000     2.743000000
O    -3.743000000    -1.401000000    -5.687000000
H    -3.457000000    -2.311000000    -5.609000000
H    -4.321000000    -1.266000000    -4.937000000
O    -1.964000000     4.572000000    -4.400000000
H    -2.472000000     3.766000000    -4.497000000
H    -1.751000000     4.831000000    -5.296000000
O     1.222000000     4.285000000    -2.020000000
H     2.173000000     4.315000000    -1.910000000
H     1.003000000     5.122000000    -2.429000000
O    -3.360000000    -5.101000000     1.056000000
H    -3.360000000    -4.148000000     0.964000000
H    -2.697000000    -5.401000000     0.435000000
O     4.493000000    -0.363000000     3.000000000
H     4.857000000    -1.134000000     3.435000000
H     3.546000000    -0.449000000     3.113000000
O     4.626000000    -0.440000000     7.455000000
H     5.298000000     0.071000000     7.004000000
H     3.839000000    -0.325000000     6.923000000
O    -1.078000000     1.131000000     3.710000000
H    -0.180000000     1.209000000     3.387000000
H    -1.181000000     1.870000000     4.310000000
O    -4.626000000    -3.882000000    -2.212000000
H    -4.007000000    -3.859000000    -1.482000000
H    -5.294000000    -4.511000000    -1.940000000
O     2.886000000    -3.057000000     6.562000000
H     1.952000000    -3.048000000     6.352000000
H     3.159000000    -2.143000000     6.477000000
O    -1.233000000    -0.834000000     5.659000000
H    -0.852000000    -0.288000000     6.347000000
H    -1.329000000    -0.245000000     4.911000000
