144
-2815.04804
O     0.347000000    -4.356000000    -2.871000000
H     0.455000000    -4.947000000    -3.616000000
H     1.021000000    -3.688000000    -2.996000000
O     5.586000000    -0.042000000    -4.357000000
H     5.124000000     0.210000000    -3.557000000
H     5.102000000     0.392000000    -5.060000000
O    -2.425000000     0.397000000     3.446000000
H    -2.811000000     1.209000000     3.775000000
H    -1.522000000     0.414000000     3.764000000
O    -1.112000000    -0.452000000    -4.980000000
H    -1.245000000     0.076000000    -5.768000000
H    -1.940000000    -0.384000000    -4.504000000
O    -4.586000000    -2.747000000     1.358000000
H    -4.810000000    -2.810000000     0.430000000
H    -3.648000000    -2.554000000     1.366000000
O     4.222000000    -6.438000000     1.657000000
H     3.882000000    -5.982000000     0.887000000
H     5.173000000    -6.419000000     1.546000000
O     0.890000000     4.673000000     0.136000000
H     0.352000000     4.320000000    -0.573000000
H     0.358000000     5.372000000     0.515000000
O     0.980000000    -4.982000000     0.816000000
H     0.176000000    -4.957000000     0.296000000
H     1.684000000    -4.985000000     0.168000000
O     3.976000000    -4.593000000    -0.469000000
H     4.187000000    -4.850000000    -1.366000000
H     3.706000000    -3.677000000    -0.538000000
O    -1.153000000    -4.841000000    -0.677000000
H    -0.717000000    -4.659000000    -1.510000000
H    -2.022000000    -5.157000000    -0.925000000
O     1.311000000     3.085000000     4.653000000
H     2.026000000     2.864000000     4.057000000
H     0.756000000     2.305000000     4.661000000
O    -5.413000000     3.844000000     4.048000000
H    -5.209000000     4.775000000     3.963000000
H    -4.559000000     3.415000000     4.097000000
O     3.494000000     3.938000000     0.615000000
H     2.556000000     4.032000000     0.445000000
H     3.723000000     4.713000000     1.128000000
O    -2.884000000     4.361000000     0.328000000
H    -2.590000000     3.883000000    -0.447000000
H    -2.104000000     4.824000000     0.634000000
O     6.575000000    -0.518000000     4.168000000
H     6.020000000     0.186000000     4.503000000
H     6.238000000    -0.691000000     3.288000000
O    -0.033000000     5.425000000     4.438000000
H     0.446000000     4.597000000     4.414000000
H    -0.871000000     5.206000000     4.846000000
O    -6.321000000     0.266000000     1.435000000
H    -6.176000000     1.206000000     1.334000000
H    -5.663000000    -0.011000000     2.073000000
O    -6.101000000     1.435000000    -2.453000000
H    -5.155000000     1.528000000    -2.561000000
H    -6.476000000     2.070000000    -3.063000000
O    -4.106000000    -1.247000000    -3.670000000
H    -3.746000000    -2.134000000    -3.650000000
H    -4.158000000    -1.031000000    -4.601000000
O     1.443000000    -0.090000000    -4.113000000
H     1.911000000    -0.847000000    -3.761000000
H     0.543000000    -0.396000000    -4.226000000
O     3.787000000     3.617000000    -2.366000000
H     4.668000000     3.417000000    -2.683000000
H     3.776000000     3.291000000    -1.466000000
O     1.058000000    -3.214000000     3.027000000
H     1.693000000    -3.917000000     3.165000000
H     1.077000000    -3.055000000     2.083000000
O     4.568000000    -3.150000000    -5.115000000
H     4.823000000    -2.280000000    -5.424000000
H     4.608000000    -3.703000000    -5.896000000
O    -4.217000000     4.084000000    -4.801000000
H    -3.439000000     3.992000000    -5.351000000
H    -3.881000000     4.058000000    -3.905000000
O    -1.151000000     4.177000000    -1.836000000
H    -0.600000000     3.484000000    -2.199000000
H    -0.896000000     4.964000000    -2.318000000
O     5.811000000    -1.662000000     1.347000000
H     5.038000000    -1.259000000     0.952000000
H     5.857000000    -2.532000000     0.950000000
O    -8.460000000    -1.126000000     0.564000000
H    -7.846000000    -0.498000000     0.944000000
H    -8.428000000    -0.953000000    -0.377000000
O     2.734000000    -2.798000000    -3.089000000
H     3.114000000    -2.480000000    -2.270000000
H     3.487000000    -2.937000000    -3.664000000
O    -4.674000000    -0.898000000     3.298000000
H    -3.852000000    -0.413000000     3.229000000
H    -4.615000000    -1.567000000     2.616000000
O     1.229000000    -0.139000000     3.624000000
H     1.130000000    -0.988000000     3.192000000
H     0.780000000    -0.243000000     4.463000000
O     5.522000000     1.820000000     1.195000000
H     4.822000000     1.248000000     0.878000000
H     6.327000000     1.412000000     0.878000000
O    -5.533000000    -1.636000000    -0.804000000
H    -5.936000000    -0.907000000    -0.332000000
H    -4.992000000    -1.218000000    -1.473000000
O    -4.840000000    -2.742000000     5.202000000
H    -4.620000000    -2.250000000     4.410000000
H    -3.994000000    -3.019000000     5.554000000
O    -5.347000000     2.738000000     1.276000000
H    -5.628000000     3.238000000     2.042000000
H    -4.709000000     3.305000000     0.841000000
O    -2.697000000     3.352000000     3.593000000
H    -2.036000000     3.732000000     3.015000000
H    -2.910000000     4.053000000     4.209000000
O     5.565000000     1.073000000    -1.733000000
H     6.378000000     0.928000000    -1.249000000
H     4.924000000     0.510000000    -1.298000000
O    -5.322000000    -3.978000000    -2.601000000
H    -5.222000000    -3.198000000    -2.055000000
H    -6.251000000    -4.196000000    -2.539000000
O     4.732000000     1.454000000     5.199000000
H     4.186000000     1.553000000     5.979000000
H     4.225000000     1.862000000     4.497000000
O     7.905000000     0.746000000     0.087000000
H     7.890000000     0.216000000     0.884000000
H     8.781000000     1.133000000     0.073000000
O     0.620000000     2.607000000    -3.181000000
H     1.302000000     3.279000000    -3.200000000
H     1.098000000     1.779000000    -3.234000000
O     6.715000000    -3.001000000    -3.409000000
H     6.145000000    -3.399000000    -4.067000000
H     6.279000000    -2.180000000    -3.179000000
O     3.546000000     2.370000000     2.990000000
H     3.770000000     2.892000000     2.220000000
H     3.616000000     1.463000000     2.692000000
O     6.690000000     3.112000000     3.536000000
H     6.204000000     2.289000000     3.492000000
H     6.768000000     3.393000000     2.624000000
O    -0.962000000     6.730000000     1.194000000
H    -0.652000000     7.312000000     1.888000000
H    -1.473000000     7.297000000     0.616000000
O    -2.444000000    -3.558000000    -4.249000000
H    -2.459000000    -3.420000000    -5.195000000
H    -1.516000000    -3.533000000    -4.017000000
O    -1.873000000    -3.117000000     1.644000000
H    -1.441000000    -2.375000000     1.221000000
H    -1.712000000    -3.855000000     1.056000000
O    -4.132000000     6.691000000    -0.610000000
H    -3.822000000     5.904000000    -0.160000000
H    -4.517000000     6.365000000    -1.423000000
O    -7.872000000     3.145000000    -0.040000000
H    -8.264000000     2.327000000     0.266000000
H    -6.951000000     3.080000000     0.215000000
