144
-2808.92476
O     0.604000000    -3.313000000    -1.899000000
H     1.259000000    -2.649000000    -1.684000000
H     0.266000000    -3.048000000    -2.754000000
O     3.053000000    -3.519000000    -4.182000000
H     2.800000000    -4.052000000    -4.935000000
H     2.813000000    -4.049000000    -3.421000000
O     6.660000000    -0.095000000    -4.158000000
H     6.179000000    -0.374000000    -3.380000000
H     6.165000000    -0.462000000    -4.891000000
O    -6.521000000     1.249000000     3.790000000
H    -7.076000000     0.670000000     3.268000000
H    -5.984000000     1.711000000     3.146000000
O    -0.278000000     0.048000000     3.111000000
H    -0.211000000     0.157000000     2.162000000
H     0.594000000    -0.239000000     3.382000000
O    -1.828000000     1.017000000    -5.788000000
H    -1.017000000     0.937000000    -6.290000000
H    -1.612000000     0.664000000    -4.925000000
O    -2.728000000    -4.916000000     0.853000000
H    -3.042000000    -4.118000000     0.428000000
H    -2.172000000    -5.335000000     0.195000000
O     5.517000000    -6.589000000     1.141000000
H     6.433000000    -6.863000000     1.190000000
H     5.524000000    -5.838000000     0.547000000
O     0.734000000     5.346000000    -0.159000000
H     0.694000000     4.916000000     0.696000000
H     0.489000000     6.254000000     0.019000000
O    -3.217000000     3.090000000    -3.948000000
H    -2.395000000     3.019000000    -3.463000000
H    -3.124000000     2.467000000    -4.669000000
O     3.291000000    -5.511000000    -2.353000000
H     2.458000000    -5.827000000    -2.002000000
H     3.720000000    -5.091000000    -1.608000000
O     4.824000000    -3.652000000    -0.504000000
H     5.046000000    -3.225000000    -1.331000000
H     4.261000000    -3.023000000    -0.053000000
O     1.072000000    -5.424000000    -0.391000000
H     0.932000000    -4.670000000    -0.964000000
H     0.339000000    -6.009000000    -0.582000000
O     3.211000000     1.816000000     4.729000000
H     3.508000000     1.037000000     4.259000000
H     2.372000000     1.560000000     5.111000000
O    -4.386000000     2.655000000     2.525000000
H    -4.485000000     3.514000000     2.936000000
H    -3.482000000     2.403000000     2.713000000
O     3.465000000     4.742000000    -0.743000000
H     2.534000000     4.967000000    -0.733000000
H     3.875000000     5.444000000    -1.248000000
O    -3.199000000     4.913000000    -1.106000000
H    -2.542000000     5.117000000    -1.772000000
H    -2.690000000     4.707000000    -0.322000000
O     0.808000000     4.017000000     2.408000000
H     0.659000000     3.081000000     2.544000000
H     1.687000000     4.172000000     2.753000000
O    -6.149000000    -1.679000000     0.075000000
H    -6.931000000    -2.149000000    -0.212000000
H    -5.847000000    -2.163000000     0.844000000
O    -5.744000000    -1.616000000    -4.550000000
H    -4.982000000    -1.735000000    -5.117000000
H    -5.562000000    -0.808000000    -4.070000000
O    -0.729000000     0.069000000    -3.500000000
H     0.114000000     0.433000000    -3.231000000
H    -0.706000000    -0.838000000    -3.194000000
O     2.919000000     4.379000000     3.863000000
H     3.328000000     3.546000000     4.099000000
H     3.653000000     4.979000000     3.736000000
O     1.797000000     1.549000000    -3.338000000
H     2.080000000     0.684000000    -3.042000000
H     1.810000000     2.088000000    -2.547000000
O     3.455000000    -3.527000000     2.680000000
H     4.386000000    -3.390000000     2.853000000
H     3.258000000    -2.940000000     1.949000000
O    -0.686000000     4.782000000    -2.374000000
H    -0.133000000     4.923000000    -1.605000000
H    -0.268000000     5.293000000    -3.067000000
O     6.338000000    -1.262000000     0.924000000
H     5.415000000    -1.335000000     0.680000000
H     6.402000000    -0.415000000     1.365000000
O     0.252000000    -4.384000000     4.354000000
H     0.894000000    -4.088000000     4.999000000
H     0.771000000    -4.587000000     3.575000000
O     5.789000000     4.359000000     2.898000000
H     5.286000000     4.044000000     2.147000000
H     6.326000000     5.068000000     2.545000000
O     6.221000000    -2.897000000     3.076000000
H     6.634000000    -2.473000000     2.324000000
H     6.128000000    -2.198000000     3.724000000
O     2.432000000    -1.190000000    -2.787000000
H     3.350000000    -0.922000000    -2.736000000
H     2.429000000    -1.917000000    -3.410000000
O    -5.238000000    -3.264000000     2.430000000
H    -4.945000000    -4.170000000     2.329000000
H    -4.668000000    -2.903000000     3.109000000
O     1.965000000    -1.385000000     3.868000000
H     2.295000000    -2.123000000     3.356000000
H     2.119000000    -1.638000000     4.779000000
O     4.387000000     2.793000000     1.114000000
H     4.278000000     1.873000000     0.874000000
H     4.309000000     3.267000000     0.286000000
O    -3.953000000    -3.190000000    -0.952000000
H    -4.738000000    -2.687000000    -0.739000000
H    -3.939000000    -3.218000000    -1.909000000
O    -5.351000000     3.794000000     0.238000000
H    -5.035000000     3.469000000     1.081000000
H    -4.594000000     3.724000000    -0.345000000
O    -1.894000000     2.194000000     3.859000000
H    -2.154000000     1.987000000     4.757000000
H    -1.262000000     1.512000000     3.630000000
O     5.094000000    -0.223000000    -1.815000000
H     5.901000000    -0.444000000    -1.350000000
H     4.482000000     0.033000000    -1.124000000
O     6.852000000     1.686000000     2.162000000
H     6.637000000     2.562000000     1.842000000
H     6.111000000     1.445000000     2.719000000
O    -0.709000000    -1.716000000     5.231000000
H    -0.659000000    -2.583000000     4.827000000
H    -0.683000000    -1.107000000     4.493000000
O     7.561000000    -3.190000000    -1.138000000
H     7.042000000    -3.169000000    -0.333000000
H     6.911000000    -3.179000000    -1.841000000
O     8.754000000     1.548000000    -0.449000000
H     9.659000000     1.517000000    -0.138000000
H     8.249000000     1.832000000     0.313000000
O     4.578000000     0.485000000     2.922000000
H     4.327000000     0.335000000     2.010000000
H     4.458000000    -0.365000000     3.346000000
O    -1.973000000     5.370000000     1.705000000
H    -1.193000000     5.073000000     2.174000000
H    -2.645000000     5.444000000     2.383000000
O    -5.517000000     1.159000000    -3.605000000
H    -5.794000000     1.096000000    -2.691000000
H    -4.776000000     1.764000000    -3.590000000
O    -6.125000000    -3.605000000    -2.884000000
H    -7.042000000    -3.848000000    -3.013000000
H    -5.991000000    -2.857000000    -3.466000000
O     2.022000000    -5.695000000     2.192000000
H     2.495000000    -4.902000000     2.444000000
H     1.738000000    -5.528000000     1.293000000
O     2.726000000     3.028000000    -5.613000000
H     2.419000000     2.535000000    -4.853000000
H     3.178000000     3.786000000    -5.241000000
O    -6.167000000     0.895000000    -1.127000000
H    -6.212000000    -0.014000000    -0.831000000
H    -5.966000000     1.396000000    -0.337000000
