144
-2836.17373
O     1.021000000    -5.100000000    -2.911000000
H     1.357000000    -4.508000000    -2.238000000
H     0.902000000    -4.543000000    -3.681000000
O     3.857000000    -2.711000000    -3.229000000
H     4.007000000    -2.737000000    -2.284000000
H     4.492000000    -3.330000000    -3.589000000
O    -4.830000000     0.460000000     4.907000000
H    -4.256000000     0.036000000     5.545000000
H    -5.139000000     1.250000000     5.350000000
O     2.761000000     1.951000000     7.396000000
H     3.094000000     2.524000000     6.705000000
H     1.851000000     1.785000000     7.152000000
O     0.297000000    -3.903000000    -5.117000000
H    -0.440000000    -4.470000000    -4.892000000
H    -0.100000000    -3.170000000    -5.588000000
O     5.180000000    -1.384000000     6.102000000
H     5.130000000    -0.764000000     6.830000000
H     4.356000000    -1.267000000     5.631000000
O    -1.754000000    -4.716000000    -1.522000000
H    -2.070000000    -5.116000000    -0.712000000
H    -0.846000000    -4.479000000    -1.333000000
O    -2.181000000     2.951000000     7.094000000
H    -2.397000000     2.026000000     6.972000000
H    -3.019000000     3.367000000     7.298000000
O     6.356000000    -2.911000000    -1.015000000
H     5.715000000    -3.614000000    -0.910000000
H     5.832000000    -2.139000000    -1.225000000
O     4.930000000    -0.448000000    -4.648000000
H     4.491000000    -1.288000000    -4.513000000
H     4.472000000     0.158000000    -4.066000000
O    -2.211000000     0.226000000     6.265000000
H    -1.569000000    -0.434000000     6.528000000
H    -2.124000000     0.279000000     5.313000000
O    -2.421000000    -2.166000000    -3.920000000
H    -2.083000000    -2.789000000    -3.277000000
H    -3.250000000    -2.547000000    -4.211000000
O     2.803000000    -0.768000000     4.364000000
H     2.518000000    -1.629000000     4.055000000
H     2.057000000    -0.193000000     4.192000000
O     6.171000000     3.898000000     0.251000000
H     5.786000000     3.077000000    -0.056000000
H     7.075000000     3.871000000    -0.062000000
O    -1.614000000    -3.736000000     2.046000000
H    -2.235000000    -3.062000000     2.320000000
H    -1.841000000    -4.501000000     2.574000000
O    -5.753000000    -2.856000000     5.509000000
H    -5.998000000    -3.781000000     5.470000000
H    -4.917000000    -2.810000000     5.046000000
O     2.536000000     2.818000000    -5.327000000
H     1.907000000     3.160000000    -4.693000000
H     3.286000000     3.410000000    -5.264000000
O     4.429000000     0.045000000     1.814000000
H     3.885000000    -0.189000000     2.565000000
H     5.323000000     0.038000000     2.154000000
O    -4.816000000    -1.504000000     1.386000000
H    -5.164000000    -2.289000000     0.963000000
H    -4.814000000    -0.841000000     0.695000000
O     0.415000000     1.450000000     6.411000000
H    -0.493000000     1.661000000     6.627000000
H     0.405000000     1.281000000     5.469000000
O     2.082000000    -3.378000000    -0.896000000
H     1.684000000    -3.181000000    -0.048000000
H     2.437000000    -2.540000000    -1.194000000
O     2.549000000    -3.363000000     3.772000000
H     1.913000000    -3.390000000     3.058000000
H     2.247000000    -4.031000000     4.388000000
O    -5.005000000     0.312000000    -0.779000000
H    -4.750000000     1.185000000    -0.481000000
H    -4.572000000     0.213000000    -1.627000000
O     4.005000000     2.184000000     4.853000000
H     4.439000000     1.374000000     5.120000000
H     4.722000000     2.794000000     4.680000000
O     0.791000000    -1.343000000    -6.232000000
H     1.301000000    -0.998000000    -5.500000000
H     1.277000000    -1.072000000    -7.011000000
O    -2.786000000    -3.783000000     5.709000000
H    -1.974000000    -3.512000000     6.137000000
H    -2.684000000    -3.501000000     4.800000000
O    -4.538000000     2.704000000     0.518000000
H    -4.066000000     3.471000000     0.194000000
H    -4.105000000     2.488000000     1.344000000
O     4.307000000    -1.010000000    -0.994000000
H     4.317000000    -0.222000000    -1.538000000
H     4.364000000    -0.682000000    -0.097000000
O     4.058000000     2.230000000     0.080000000
H     3.899000000     2.890000000     0.754000000
H     4.331000000     1.452000000     0.566000000
O    -1.872000000     0.576000000    -6.924000000
H    -1.654000000    -0.035000000    -7.628000000
H    -1.319000000     0.304000000    -6.191000000
O    -4.035000000    -0.098000000    -3.398000000
H    -3.591000000     0.670000000    -3.757000000
H    -3.398000000    -0.807000000    -3.488000000
O     3.742000000     4.058000000    -2.234000000
H     3.378000000     3.705000000    -1.422000000
H     3.171000000     4.795000000    -2.452000000
O    -3.330000000    -1.867000000     3.691000000
H    -2.615000000    -1.240000000     3.575000000
H    -3.855000000    -1.780000000     2.895000000
O     4.388000000     1.206000000    -2.494000000
H     4.409000000     1.913000000    -3.139000000
H     4.348000000     1.654000000    -1.649000000
O     2.436000000     0.850000000    -7.243000000
H     2.457000000     1.513000000    -6.552000000
H     3.342000000     0.548000000    -7.311000000
O    -7.082000000    -0.053000000     2.618000000
H    -6.200000000    -0.146000000     2.978000000
H    -7.345000000    -0.945000000     2.395000000
O    -5.305000000    -3.537000000    -4.305000000
H    -5.188000000    -3.478000000    -3.356000000
H    -6.166000000    -3.152000000    -4.465000000
O    -7.299000000    -0.922000000    -1.245000000
H    -6.501000000    -0.509000000    -1.575000000
H    -7.455000000    -0.499000000    -0.400000000
O    -3.451000000     1.895000000     2.749000000
H    -4.007000000     1.606000000     3.473000000
H    -2.885000000     1.145000000     2.567000000
O    -0.155000000     3.526000000    -1.064000000
H     0.027000000     2.647000000    -0.732000000
H    -0.369000000     4.037000000    -0.283000000
O     1.883000000    -1.703000000     6.657000000
H     2.079000000    -1.066000000     5.970000000
H     1.955000000    -1.206000000     7.472000000
O     0.025000000     3.635000000    -3.950000000
H    -0.238000000     3.623000000    -3.030000000
H     0.203000000     4.557000000    -4.136000000
O    -1.663000000     4.063000000     2.563000000
H    -1.576000000     4.049000000     3.516000000
H    -2.431000000     3.521000000     2.384000000
O     0.882000000    -2.551000000     1.451000000
H     0.868000000    -1.657000000     1.110000000
H    -0.038000000    -2.812000000     1.477000000
O    -0.643000000    -2.705000000     6.882000000
H    -0.467000000    -3.053000000     7.756000000
H     0.208000000    -2.402000000     6.569000000
O     0.649000000     5.613000000     1.896000000
H    -0.222000000     5.254000000     2.068000000
H     1.251000000     4.975000000     2.282000000
O    -2.370000000     2.006000000    -4.452000000
H    -2.396000000     1.851000000    -5.396000000
H    -1.494000000     2.357000000    -4.291000000
O     1.660000000     3.249000000     3.377000000
H     1.039000000     2.531000000     3.497000000
H     2.443000000     2.971000000     3.852000000
