144
-2821.35442
O     3.333000000     0.056000000    -4.099000000
H     3.189000000    -0.439000000    -3.292000000
H     3.028000000    -0.527000000    -4.794000000
O     2.058000000     5.389000000    -1.705000000
H     1.854000000     5.819000000    -2.536000000
H     2.819000000     5.864000000    -1.370000000
O    -0.545000000     3.000000000    -6.927000000
H    -0.997000000     2.536000000    -6.223000000
H     0.380000000     2.966000000    -6.682000000
O     0.473000000    -1.957000000     7.614000000
H     1.041000000    -2.544000000     8.113000000
H     0.680000000    -1.084000000     7.947000000
O    -0.636000000    -1.985000000    -5.400000000
H    -0.541000000    -1.036000000    -5.316000000
H    -1.076000000    -2.254000000    -4.594000000
O     5.766000000     1.200000000    -3.875000000
H     6.169000000     0.458000000    -3.423000000
H     4.898000000     0.885000000    -4.124000000
O    -3.812000000    -2.252000000    -3.552000000
H    -3.142000000    -2.639000000    -2.988000000
H    -4.592000000    -2.784000000    -3.396000000
O    -2.996000000     3.153000000     2.704000000
H    -3.158000000     2.330000000     3.165000000
H    -2.258000000     3.547000000     3.169000000
O     1.035000000     2.696000000     7.583000000
H     1.243000000     3.117000000     6.749000000
H     1.385000000     1.809000000     7.498000000
O     2.864000000    -4.025000000    -3.778000000
H     2.681000000    -3.360000000    -4.441000000
H     2.519000000    -4.837000000    -4.152000000
O     1.990000000     3.785000000     4.978000000
H     2.540000000     3.054000000     4.694000000
H     2.609000000     4.434000000     5.313000000
O    -4.604000000    -0.107000000    -1.901000000
H    -4.499000000    -0.475000000    -2.779000000
H    -4.632000000     0.840000000    -2.040000000
O     2.782000000    -2.293000000     2.794000000
H     1.959000000    -2.740000000     2.596000000
H     2.515000000    -1.455000000     3.173000000
O    -1.439000000    -4.542000000     0.734000000
H    -2.177000000    -4.083000000     1.136000000
H    -1.810000000    -5.369000000     0.425000000
O    -3.481000000    -3.790000000     2.970000000
H    -4.176000000    -4.446000000     2.932000000
H    -2.914000000    -4.082000000     3.684000000
O    -3.327000000    -2.689000000     6.967000000
H    -3.884000000    -3.291000000     6.473000000
H    -2.486000000    -2.711000000     6.509000000
O     4.790000000     3.048000000     2.473000000
H     4.178000000     2.462000000     2.919000000
H     4.747000000     2.784000000     1.554000000
O    -3.846000000    -2.991000000    -0.055000000
H    -4.422000000    -3.465000000     0.546000000
H    -4.192000000    -2.099000000    -0.065000000
O     3.228000000     1.434000000     3.909000000
H     3.779000000     1.123000000     4.627000000
H     2.501000000     0.812000000     3.878000000
O     0.390000000    -3.049000000    -0.269000000
H    -0.348000000    -3.525000000     0.113000000
H     0.356000000    -2.185000000     0.142000000
O     0.301000000    -3.397000000     2.767000000
H    -0.199000000    -3.128000000     3.538000000
H    -0.173000000    -4.155000000     2.426000000
O    -5.891000000    -1.080000000     0.564000000
H    -6.716000000    -0.779000000     0.943000000
H    -6.094000000    -1.239000000    -0.358000000
O     3.079000000     3.357000000    -5.168000000
H     3.202000000     2.624000000    -5.771000000
H     2.157000000     3.307000000    -4.916000000
O    -2.735000000     1.194000000    -6.300000000
H    -3.582000000     1.544000000    -6.577000000
H    -2.525000000     0.529000000    -6.955000000
O     5.459000000    -2.469000000     2.837000000
H     4.521000000    -2.436000000     3.024000000
H     5.522000000    -2.292000000     1.899000000
O     5.145000000    -2.557000000     0.033000000
H     4.356000000    -2.454000000    -0.498000000
H     5.676000000    -3.192000000    -0.447000000
O     3.466000000     2.810000000    -1.035000000
H     4.063000000     3.303000000    -1.597000000
H     2.711000000     3.388000000    -0.921000000
O    -0.648000000     3.906000000     4.585000000
H     0.274000000     3.756000000     4.794000000
H    -0.631000000     4.398000000     3.765000000
O    -4.649000000     2.485000000    -2.163000000
H    -5.099000000     3.303000000    -2.375000000
H    -4.317000000     2.617000000    -1.275000000
O    -1.039000000    -2.781000000     5.520000000
H    -1.137000000    -2.053000000     4.906000000
H    -0.362000000    -2.490000000     6.130000000
O     4.444000000     0.625000000     0.219000000
H     4.080000000     1.345000000    -0.298000000
H     3.955000000    -0.146000000    -0.068000000
O     2.000000000    -2.097000000    -5.550000000
H     1.051000000    -2.223000000    -5.556000000
H     2.236000000    -2.016000000    -6.474000000
O    -1.720000000    -5.507000000     4.895000000
H    -1.261000000    -4.671000000     4.967000000
H    -1.050000000    -6.124000000     4.600000000
O    -4.412000000    -1.176000000     2.961000000
H    -3.948000000    -2.013000000     2.960000000
H    -4.710000000    -1.067000000     2.058000000
O     2.345000000    -5.077000000    -0.265000000
H     1.639000000    -4.465000000    -0.058000000
H     2.894000000    -5.084000000     0.520000000
O    -2.950000000     0.754000000     3.931000000
H    -3.668000000     0.136000000     3.799000000
H    -2.159000000     0.217000000     3.885000000
O     3.794000000    -4.924000000     1.875000000
H     3.605000000    -4.011000000     2.092000000
H     3.660000000    -5.398000000     2.695000000
O    -0.295000000     3.632000000    -0.708000000
H     0.231000000     3.153000000    -0.068000000
H     0.347000000     4.075000000    -1.263000000
O     7.218000000     1.358000000     0.618000000
H     7.482000000     1.256000000     1.532000000
H     6.394000000     0.875000000     0.551000000
O     2.806000000    -2.199000000    -1.749000000
H     2.071000000    -2.549000000    -1.246000000
H     2.904000000    -2.805000000    -2.483000000
O    -3.669000000     3.372000000     0.075000000
H    -3.190000000     4.177000000    -0.124000000
H    -3.299000000     3.072000000     0.906000000
O    -3.533000000     1.970000000     6.192000000
H    -4.436000000     2.153000000     5.931000000
H    -3.086000000     1.753000000     5.374000000
O    -1.814000000     4.715000000    -3.198000000
H    -1.815000000     3.771000000    -3.038000000
H    -2.022000000     5.103000000    -2.348000000
O     2.482000000    -1.497000000     5.581000000
H     2.363000000    -2.373000000     5.214000000
H     1.886000000    -0.943000000     5.078000000
O     1.053000000     2.952000000     1.505000000
H     0.643000000     2.157000000     1.846000000
H     0.671000000     3.660000000     2.024000000
O     2.663000000     0.329000000     7.685000000
H     3.524000000     0.596000000     7.362000000
H     2.498000000    -0.512000000     7.259000000
O    -4.886000000     1.213000000    -4.477000000
H    -3.976000000     1.393000000    -4.714000000
H    -5.054000000     1.782000000    -3.725000000
O    -1.744000000    -3.609000000    -2.127000000
H    -0.861000000    -3.597000000    -1.758000000
H    -2.304000000    -3.879000000    -1.399000000
