144
-2812.57229
O    -2.722000000    -5.125000000    -4.136000000
H    -2.971000000    -5.536000000    -4.964000000
H    -1.777000000    -5.263000000    -4.074000000
O     5.029000000     1.817000000     1.799000000
H     4.139000000     1.845000000     2.149000000
H     4.920000000     1.542000000     0.889000000
O     3.225000000    -3.388000000    -5.026000000
H     3.733000000    -2.579000000    -4.984000000
H     3.653000000    -3.973000000    -4.400000000
O     1.829000000    -4.345000000     1.890000000
H     1.680000000    -3.405000000     1.999000000
H     0.958000000    -4.735000000     1.957000000
O     0.991000000    -6.536000000    -0.499000000
H     1.631000000    -5.857000000    -0.713000000
H     0.198000000    -6.053000000    -0.264000000
O    -2.950000000     2.026000000     6.508000000
H    -2.206000000     1.587000000     6.097000000
H    -2.733000000     2.046000000     7.440000000
O    -3.280000000    -5.339000000    -1.444000000
H    -3.613000000    -4.448000000    -1.334000000
H    -3.305000000    -5.489000000    -2.389000000
O     0.184000000    -5.596000000    -3.535000000
H     0.376000000    -6.489000000    -3.249000000
H     0.597000000    -5.039000000    -2.875000000
O     1.145000000     0.650000000     7.987000000
H     1.578000000    -0.108000000     8.380000000
H     1.439000000     0.649000000     7.076000000
O    -4.745000000    -3.054000000    -0.983000000
H    -4.563000000    -2.979000000    -0.046000000
H    -5.515000000    -3.619000000    -1.033000000
O    -3.730000000     5.025000000     0.745000000
H    -4.443000000     4.450000000     1.021000000
H    -2.934000000     4.550000000     0.981000000
O     0.665000000     6.338000000     2.164000000
H     1.502000000     5.992000000     2.471000000
H     0.055000000     6.161000000     2.880000000
O     4.840000000     2.239000000    -1.414000000
H     4.968000000     2.509000000    -2.324000000
H     5.496000000     1.557000000    -1.272000000
O     0.050000000    -3.365000000    -5.119000000
H     0.981000000    -3.150000000    -5.067000000
H    -0.018000000    -4.234000000    -4.724000000
O    -2.329000000     0.785000000    -5.217000000
H    -2.602000000    -0.003000000    -4.746000000
H    -3.145000000     1.248000000    -5.404000000
O     6.312000000     4.507000000     0.848000000
H     6.004000000     5.412000000     0.806000000
H     5.606000000     4.034000000     1.289000000
O     3.152000000    -0.934000000     2.889000000
H     2.323000000    -1.410000000     2.841000000
H     2.897000000    -0.013000000     2.947000000
O    -0.364000000     0.906000000    -7.206000000
H    -0.222000000    -0.040000000    -7.170000000
H    -1.074000000     1.065000000    -6.584000000
O     2.992000000     4.252000000     1.930000000
H     2.662000000     4.181000000     1.034000000
H     2.786000000     3.406000000     2.328000000
O    -3.437000000    -3.760000000     1.885000000
H    -2.881000000    -4.158000000     2.554000000
H    -3.329000000    -2.818000000     2.013000000
O    -4.700000000    -0.868000000     1.877000000
H    -5.129000000    -1.319000000     2.605000000
H    -5.353000000    -0.871000000     1.177000000
O     0.398000000    -1.952000000    -7.475000000
H     1.323000000    -2.176000000    -7.576000000
H     0.149000000    -2.333000000    -6.632000000
O    -3.408000000     4.378000000     3.755000000
H    -3.287000000     3.428000000     3.766000000
H    -4.355000000     4.498000000     3.684000000
O     1.921000000    -4.178000000    -1.579000000
H     2.244000000    -3.450000000    -1.049000000
H     2.670000000    -4.432000000    -2.119000000
O     5.409000000    -1.278000000     1.594000000
H     6.204000000    -1.214000000     2.122000000
H     4.694000000    -1.194000000     2.225000000
O    -4.295000000     2.088000000     1.404000000
H    -4.560000000     1.253000000     1.791000000
H    -4.187000000     1.896000000     0.472000000
O    -0.814000000     1.504000000     4.868000000
H    -0.523000000     1.993000000     4.098000000
H    -0.043000000     1.469000000     5.435000000
O     0.082000000    -2.473000000     3.152000000
H    -0.606000000    -1.812000000     3.080000000
H    -0.366000000    -3.303000000     2.992000000
O     0.611000000    -1.882000000     6.097000000
H     1.533000000    -2.125000000     6.010000000
H     0.330000000    -1.685000000     5.203000000
O    -3.939000000     1.976000000    -1.678000000
H    -3.816000000     1.037000000    -1.816000000
H    -4.604000000     2.227000000    -2.318000000
O     3.202000000    -2.567000000     5.494000000
H     3.420000000    -3.498000000     5.526000000
H     3.196000000    -2.354000000     4.561000000
O     2.587000000     3.775000000    -0.802000000
H     3.239000000     3.160000000    -1.138000000
H     1.745000000     3.373000000    -1.018000000
O     0.032000000     5.309000000    -2.486000000
H    -0.397000000     4.637000000    -1.955000000
H    -0.512000000     6.088000000    -2.372000000
O     4.590000000     1.099000000     6.760000000
H     5.104000000     1.318000000     5.983000000
H     4.869000000     0.213000000     6.991000000
O    -2.980000000    -1.910000000    -4.696000000
H    -2.719000000    -2.562000000    -4.045000000
H    -3.240000000    -2.425000000    -5.459000000
O    -1.632000000     3.237000000    -1.619000000
H    -2.411000000     2.693000000    -1.737000000
H    -1.483000000     3.239000000    -0.673000000
O     1.147000000     4.207000000     6.425000000
H     0.455000000     4.448000000     5.810000000
H     1.520000000     3.403000000     6.063000000
O     2.158000000     1.975000000     5.445000000
H     2.985000000     1.543000000     5.659000000
H     2.177000000     2.069000000     4.493000000
O     4.831000000     4.948000000     3.971000000
H     4.277000000     5.021000000     3.194000000
H     4.467000000     5.584000000     4.586000000
O    -4.582000000    -0.821000000    -2.916000000
H    -4.668000000    -1.641000000    -2.429000000
H    -4.162000000    -1.074000000    -3.738000000
O    -0.237000000     2.328000000    -3.705000000
H    -0.977000000     2.041000000    -4.241000000
H    -0.639000000     2.701000000    -2.921000000
O     6.306000000     0.256000000    -0.693000000
H     6.616000000    -0.536000000    -1.133000000
H     6.239000000     0.007000000     0.228000000
O     3.691000000    -2.952000000     0.103000000
H     4.388000000    -2.322000000     0.284000000
H     3.422000000    -3.266000000     0.967000000
O     2.018000000     2.704000000    -5.386000000
H     1.198000000     2.560000000    -4.913000000
H     2.053000000     1.993000000    -6.026000000
O    -1.128000000     4.340000000     1.050000000
H    -0.529000000     3.762000000     1.522000000
H    -0.820000000     5.223000000     1.254000000
O    -6.729000000    -0.364000000    -0.126000000
H    -6.241000000    -0.683000000    -0.885000000
H    -7.206000000    -1.130000000     0.192000000
O    -2.294000000    -0.681000000     3.619000000
H    -2.694000000    -0.658000000     2.749000000
H    -1.993000000     0.215000000     3.767000000
O    -0.626000000     4.740000000     4.074000000
H    -0.267000000     4.031000000     3.542000000
H    -1.567000000     4.566000000     4.104000000
