144
-2818.10417
O    -3.703000000    -4.523000000     0.586000000
H    -2.756000000    -4.615000000     0.482000000
H    -3.835000000    -4.457000000     1.532000000
O    -3.784000000     1.474000000     3.450000000
H    -3.379000000     2.274000000     3.116000000
H    -4.272000000     1.757000000     4.223000000
O     1.800000000     3.540000000     5.387000000
H     2.460000000     3.850000000     6.007000000
H     2.260000000     2.895000000     4.850000000
O    -2.788000000     0.116000000    -5.438000000
H    -2.938000000    -0.641000000    -4.871000000
H    -2.434000000    -0.256000000    -6.245000000
O    -2.130000000     5.193000000     1.219000000
H    -1.342000000     4.684000000     1.412000000
H    -1.864000000     6.103000000     1.346000000
O     2.321000000    -3.276000000    -2.967000000
H     1.437000000    -2.959000000    -3.150000000
H     2.411000000    -3.199000000    -2.017000000
O     0.661000000    -4.619000000     2.383000000
H     0.613000000    -3.767000000     2.818000000
H     0.251000000    -4.475000000     1.530000000
O     3.159000000     0.417000000     3.675000000
H     3.178000000     0.043000000     2.794000000
H     2.359000000     0.066000000     4.067000000
O    -4.728000000     3.839000000     0.814000000
H    -3.873000000     4.242000000     0.960000000
H    -5.320000000     4.314000000     1.397000000
O    -3.054000000     4.651000000     3.732000000
H    -2.827000000     5.223000000     2.998000000
H    -2.261000000     4.141000000     3.892000000
O    -0.083000000     1.306000000    -5.144000000
H     0.482000000     1.292000000    -4.371000000
H    -0.970000000     1.230000000    -4.795000000
O    -3.564000000     4.330000000    -1.990000000
H    -2.675000000     4.138000000    -2.288000000
H    -3.557000000     4.114000000    -1.058000000
O    -0.901000000    -4.676000000    -0.012000000
H    -0.808000000    -4.479000000    -0.944000000
H    -0.928000000    -5.632000000     0.029000000
O     7.059000000     0.343000000     2.845000000
H     7.172000000    -0.037000000     3.716000000
H     7.335000000    -0.348000000     2.244000000
O    -1.062000000     2.944000000     3.939000000
H    -0.381000000     2.839000000     3.275000000
H    -0.839000000     2.303000000     4.614000000
O    -6.019000000     3.298000000    -1.992000000
H    -5.948000000     2.671000000    -2.712000000
H    -5.217000000     3.817000000    -2.047000000
O    -2.923000000    -2.158000000    -4.045000000
H    -3.641000000    -1.998000000    -3.433000000
H    -3.261000000    -2.827000000    -4.641000000
O     4.216000000     4.909000000     0.770000000
H     3.895000000     5.805000000     0.874000000
H     4.871000000     4.969000000     0.074000000
O     1.011000000    -0.431000000     5.189000000
H     0.106000000    -0.121000000     5.218000000
H     1.267000000    -0.508000000     6.108000000
O     1.576000000     1.187000000    -2.659000000
H     0.922000000     0.616000000    -2.254000000
H     1.487000000     2.019000000    -2.194000000
O     3.529000000    -5.085000000     0.354000000
H     2.950000000    -4.840000000    -0.368000000
H     3.811000000    -4.250000000     0.729000000
O    -5.492000000     1.883000000    -4.627000000
H    -5.348000000     2.532000000    -5.315000000
H    -4.714000000     1.326000000    -4.658000000
O    -4.708000000     5.047000000    -4.796000000
H    -4.086000000     5.542000000    -5.330000000
H    -4.258000000     4.921000000    -3.960000000
O    -1.206000000     3.902000000    -2.910000000
H    -0.359000000     3.471000000    -3.023000000
H    -0.997000000     4.835000000    -2.871000000
O     5.512000000    -2.834000000    -1.090000000
H     4.705000000    -2.733000000    -0.586000000
H     5.426000000    -3.689000000    -1.512000000
O     0.538000000     4.503000000     2.067000000
H     1.445000000     4.262000000     1.882000000
H     0.600000000     5.157000000     2.763000000
O     1.117000000     3.948000000    -1.204000000
H     0.821000000     4.038000000    -0.298000000
H     1.489000000     4.803000000    -1.420000000
O    -1.514000000     0.167000000     4.541000000
H    -2.013000000    -0.609000000     4.794000000
H    -2.178000000     0.834000000     4.369000000
O    -0.273000000    -3.015000000    -3.623000000
H     0.026000000    -3.004000000    -4.533000000
H    -1.152000000    -2.638000000    -3.655000000
O    -7.658000000    -0.336000000     1.756000000
H    -6.906000000    -0.598000000     2.289000000
H    -7.326000000     0.373000000     1.206000000
O     2.839000000    -3.431000000     4.565000000
H     2.777000000    -4.380000000     4.451000000
H     2.253000000    -3.239000000     5.297000000
O     2.894000000     3.278000000     2.618000000
H     3.610000000     2.734000000     2.946000000
H     3.329000000     3.981000000     2.135000000
O     0.007000000    -2.162000000     3.152000000
H    -0.520000000    -1.435000000     2.821000000
H     0.540000000    -1.775000000     3.846000000
O    -6.437000000     1.523000000     0.076000000
H    -6.349000000     2.217000000    -0.577000000
H    -5.737000000     1.697000000     0.705000000
O     3.479000000    -0.681000000    -2.937000000
H     3.236000000    -1.489000000    -2.484000000
H     2.815000000    -0.047000000    -2.668000000
O     3.888000000    -7.531000000     1.836000000
H     3.716000000    -6.714000000     1.368000000
H     4.026000000    -7.262000000     2.745000000
O     5.099000000     0.400000000     0.189000000
H     5.644000000    -0.225000000    -0.290000000
H     4.472000000    -0.145000000     0.665000000
O     7.268000000    -0.845000000    -1.278000000
H     7.611000000    -0.947000000    -0.390000000
H     6.745000000    -1.633000000    -1.425000000
O     4.484000000     2.162000000    -2.043000000
H     4.632000000     1.461000000    -1.408000000
H     3.668000000     2.574000000    -1.758000000
O     7.752000000    -1.740000000     1.290000000
H     8.467000000    -1.963000000     1.886000000
H     7.044000000    -2.337000000     1.532000000
O     5.049000000    -2.508000000     2.868000000
H     4.590000000    -1.916000000     2.272000000
H     4.355000000    -2.895000000     3.402000000
O     5.281000000     2.292000000     3.630000000
H     6.059000000     1.755000000     3.480000000
H     4.553000000     1.670000000     3.609000000
O     4.923000000    -1.503000000     5.519000000
H     4.081000000    -1.049000000     5.539000000
H     5.086000000    -1.666000000     4.590000000
O    -5.782000000    -2.754000000    -2.130000000
H    -5.253000000    -2.372000000    -1.429000000
H    -6.597000000    -2.253000000    -2.116000000
O     2.365000000    -0.842000000    -5.443000000
H     2.613000000    -1.069000000    -4.546000000
H     2.583000000     0.087000000    -5.523000000
O    -4.619000000    -1.808000000     0.152000000
H    -4.999000000    -1.601000000     1.006000000
H    -4.062000000    -2.569000000     0.317000000
O     4.090000000    -5.739000000    -3.423000000
H     3.661000000    -4.907000000    -3.223000000
H     3.924000000    -5.877000000    -4.355000000
O    -4.980000000    -1.024000000     2.701000000
H    -4.572000000    -1.449000000     3.456000000
H    -4.637000000    -0.131000000     2.715000000
