144
-2821.41281
O    -2.673000000    -3.969000000     2.787000000
H    -3.092000000    -3.109000000     2.753000000
H    -3.339000000    -4.546000000     3.158000000
O     3.256000000     4.896000000     3.895000000
H     2.469000000     5.415000000     3.730000000
H     3.145000000     4.569000000     4.787000000
O    -1.937000000     3.888000000     3.026000000
H    -2.129000000     3.829000000     2.090000000
H    -1.031000000     3.587000000     3.104000000
O     5.627000000     0.488000000     0.936000000
H     5.617000000     1.247000000     0.353000000
H     4.871000000    -0.033000000     0.665000000
O    -3.252000000     0.144000000     3.005000000
H    -3.684000000    -0.387000000     3.673000000
H    -2.357000000    -0.193000000     2.972000000
O     3.794000000     0.687000000     3.076000000
H     3.597000000     1.442000000     2.522000000
H     4.727000000     0.771000000     3.274000000
O    -4.864000000     4.997000000     1.982000000
H    -4.805000000     4.044000000     2.037000000
H    -4.759000000     5.297000000     2.885000000
O     0.290000000    -1.586000000    -4.411000000
H     0.423000000    -0.659000000    -4.210000000
H     1.153000000    -1.983000000    -4.293000000
O    -4.838000000     1.970000000    -4.645000000
H    -5.590000000     1.411000000    -4.447000000
H    -4.122000000     1.599000000    -4.130000000
O    -4.332000000    -4.234000000    -1.288000000
H    -5.086000000    -4.821000000    -1.235000000
H    -4.556000000    -3.621000000    -1.989000000
O     5.635000000    -2.371000000     0.688000000
H     5.016000000    -3.027000000     0.366000000
H     5.368000000    -2.214000000     1.594000000
O    -4.670000000    -0.694000000    -0.938000000
H    -5.461000000    -1.152000000    -0.653000000
H    -4.402000000    -1.152000000    -1.734000000
O     2.393000000    -1.771000000     3.197000000
H     3.127000000    -1.357000000     2.745000000
H     1.835000000    -1.041000000     3.467000000
O    -1.938000000     6.367000000     4.289000000
H    -2.854000000     6.645000000     4.245000000
H    -1.940000000     5.479000000     3.933000000
O    -6.240000000    -0.522000000     2.114000000
H    -5.865000000    -1.175000000     1.523000000
H    -7.180000000    -0.545000000     1.931000000
O    -0.543000000    -4.306000000    -5.274000000
H    -1.478000000    -4.443000000    -5.425000000
H    -0.454000000    -3.359000000    -5.169000000
O     2.138000000     5.009000000    -1.122000000
H     1.866000000     4.661000000    -0.273000000
H     2.072000000     5.959000000    -1.024000000
O     3.233000000    -3.653000000     1.161000000
H     2.457000000    -3.354000000     1.636000000
H     3.770000000    -4.082000000     1.827000000
O    -0.064000000    -4.833000000     2.615000000
H     0.303000000    -5.644000000     2.261000000
H    -0.913000000    -4.746000000     2.182000000
O     2.775000000    -4.989000000    -1.479000000
H     2.522000000    -4.288000000    -0.878000000
H     3.489000000    -5.442000000    -1.032000000
O    -5.697000000     1.699000000    -0.639000000
H    -6.647000000     1.616000000    -0.728000000
H    -5.363000000     0.817000000    -0.805000000
O     0.684000000     3.414000000     3.635000000
H     0.692000000     2.467000000     3.779000000
H     1.016000000     3.524000000     2.744000000
O     0.559000000     0.575000000     4.165000000
H     0.108000000     0.300000000     4.963000000
H     0.205000000     0.005000000     3.482000000
O     3.509000000     3.164000000     1.928000000
H     2.590000000     3.203000000     1.662000000
H     3.556000000     3.715000000     2.709000000
O     0.730000000     6.483000000     3.422000000
H    -0.059000000     6.276000000     3.922000000
H     0.554000000     6.140000000     2.545000000
O    -0.539000000     6.328000000     0.896000000
H    -1.464000000     6.400000000     0.662000000
H    -0.284000000     5.455000000     0.598000000
O    -4.447000000     2.368000000     2.273000000
H    -4.016000000     1.563000000     2.558000000
H    -4.643000000     2.221000000     1.348000000
O     4.059000000    -1.184000000    -2.479000000
H     5.011000000    -1.157000000    -2.388000000
H     3.763000000    -0.331000000    -2.161000000
O    -2.469000000     1.163000000    -3.583000000
H    -2.161000000     1.858000000    -4.165000000
H    -2.400000000     1.538000000    -2.705000000
O     2.513000000    -3.143000000    -3.551000000
H     2.492000000    -3.966000000    -3.063000000
H     2.853000000    -2.503000000    -2.926000000
O    -4.710000000    -2.046000000    -3.243000000
H    -4.091000000    -2.521000000    -3.798000000
H    -5.407000000    -1.775000000    -3.840000000
O     4.586000000     6.717000000     1.737000000
H     4.074000000     7.511000000     1.585000000
H     3.960000000     6.096000000     2.111000000
O    -2.525000000    -1.178000000    -5.338000000
H    -2.490000000    -0.281000000    -5.006000000
H    -1.687000000    -1.562000000    -5.080000000
O    -0.391000000    -7.958000000    -3.253000000
H    -0.500000000    -8.451000000    -2.440000000
H    -0.332000000    -7.045000000    -2.974000000
O     5.133000000     2.969000000    -0.311000000
H     5.197000000     3.900000000    -0.525000000
H     4.666000000     2.947000000     0.524000000
O     2.434000000     4.841000000    -3.701000000
H     3.032000000     5.415000000    -4.180000000
H     2.439000000     5.182000000    -2.807000000
O     1.034000000    -7.047000000     1.136000000
H     0.390000000    -7.160000000     0.437000000
H     1.840000000    -6.800000000     0.681000000
O    -4.826000000     4.039000000    -1.562000000
H    -3.949000000     3.655000000    -1.564000000
H    -5.379000000     3.369000000    -1.160000000
O    -3.808000000    -6.168000000     1.058000000
H    -3.610000000    -5.435000000     0.476000000
H    -4.631000000    -6.524000000     0.723000000
O     0.063000000    -2.705000000     5.449000000
H    -0.072000000    -3.551000000     5.875000000
H     0.330000000    -2.926000000     4.556000000
O     1.169000000     7.833000000    -0.555000000
H     0.324000000     7.613000000    -0.162000000
H     0.945000000     8.263000000    -1.380000000
O     0.572000000     0.882000000    -3.363000000
H    -0.013000000     1.637000000    -3.295000000
H     0.302000000     0.306000000    -2.648000000
O    -0.890000000    -1.178000000     2.424000000
H    -0.767000000    -0.860000000     1.530000000
H    -0.752000000    -2.123000000     2.364000000
O    -1.943000000     3.447000000    -2.134000000
H    -1.658000000     3.501000000    -1.222000000
H    -1.915000000     4.351000000    -2.447000000
O    -3.256000000     6.363000000    -0.056000000
H    -3.361000000     5.788000000    -0.814000000
H    -3.969000000     6.116000000     0.533000000
O    -1.165000000    -7.257000000    -0.446000000
H    -1.874000000    -7.720000000     0.000000000
H    -1.600000000    -6.542000000    -0.910000000
O    -0.538000000     5.237000000    -3.965000000
H     0.407000000     5.175000000    -4.104000000
H    -0.648000000     6.014000000    -3.417000000
O    -2.889000000    -6.417000000    -2.366000000
H    -3.345000000    -7.184000000    -2.021000000
H    -3.296000000    -5.675000000    -1.919000000
