144
-2777.81081
O    -2.353000000    -2.787000000     1.775000000
H    -3.074000000    -3.392000000     1.951000000
H    -2.221000000    -2.841000000     0.829000000
O     2.108000000     6.014000000     3.760000000
H     1.370000000     6.622000000     3.804000000
H     1.702000000     5.149000000     3.702000000
O    -2.430000000     3.431000000     3.119000000
H    -1.688000000     3.411000000     2.514000000
H    -3.163000000     3.742000000     2.588000000
O     3.471000000    -0.266000000     3.951000000
H     3.885000000     0.385000000     4.517000000
H     4.064000000    -1.017000000     3.973000000
O     3.874000000    -2.266000000    -5.470000000
H     3.634000000    -2.348000000    -4.547000000
H     4.443000000    -3.017000000    -5.637000000
O    -0.296000000    -3.013000000    -4.377000000
H    -0.266000000    -2.372000000    -5.087000000
H    -1.224000000    -3.078000000    -4.153000000
O    -4.098000000     2.879000000     5.462000000
H    -3.609000000     3.097000000     4.669000000
H    -3.747000000     3.468000000     6.130000000
O    -4.046000000     4.368000000    -3.351000000
H    -3.277000000     3.812000000    -3.224000000
H    -4.415000000     4.469000000    -2.473000000
O    -4.199000000    -3.776000000    -1.034000000
H    -5.092000000    -4.068000000    -0.854000000
H    -4.307000000    -2.957000000    -1.518000000
O    -5.350000000    -0.117000000     1.465000000
H    -5.504000000    -0.945000000     1.010000000
H    -5.981000000     0.490000000     1.078000000
O     0.870000000    -0.367000000     4.426000000
H     1.787000000    -0.257000000     4.172000000
H     0.570000000    -1.120000000     3.916000000
O    -1.275000000     5.197000000     5.705000000
H    -1.279000000     4.767000000     4.849000000
H    -2.021000000     4.817000000     6.168000000
O    -0.134000000    -0.281000000    -5.640000000
H    -0.547000000     0.573000000    -5.514000000
H     0.775000000    -0.077000000    -5.860000000
O     1.774000000     5.178000000    -0.280000000
H     1.750000000     4.562000000     0.452000000
H     1.310000000     5.951000000     0.042000000
O     4.656000000    -1.219000000     1.331000000
H     4.214000000    -0.481000000     1.750000000
H     4.022000000    -1.934000000     1.372000000
O     0.814000000    -6.607000000     2.337000000
H     0.335000000    -5.802000000     2.532000000
H     1.707000000    -6.316000000     2.152000000
O     1.323000000    -4.962000000    -3.184000000
H     1.628000000    -4.437000000    -2.444000000
H     1.112000000    -4.320000000    -3.862000000
O     5.656000000    -3.705000000    -1.095000000
H     5.163000000    -4.042000000    -0.347000000
H     6.322000000    -3.137000000    -0.707000000
O    -4.111000000     2.082000000    -0.912000000
H    -4.772000000     2.396000000    -0.295000000
H    -4.615000000     1.668000000    -1.613000000
O     4.618000000     4.910000000     0.541000000
H     4.477000000     4.169000000     1.131000000
H     3.745000000     5.120000000     0.208000000
O     1.263000000     3.365000000     3.935000000
H     0.751000000     2.559000000     4.001000000
H     1.164000000     3.637000000     3.023000000
O    -0.748000000     1.449000000     5.149000000
H    -1.576000000     1.219000000     4.726000000
H    -0.145000000     0.753000000     4.890000000
O     3.864000000     2.831000000     2.504000000
H     2.994000000     2.850000000     2.104000000
H     3.700000000     2.624000000     3.424000000
O    -2.988000000     7.242000000     3.526000000
H    -3.478000000     6.653000000     4.101000000
H    -2.705000000     6.686000000     2.800000000
O    -2.455000000     4.924000000    -0.107000000
H    -1.979000000     4.486000000    -0.813000000
H    -1.965000000     4.704000000     0.685000000
O     5.344000000    -0.721000000    -1.854000000
H     6.157000000    -1.062000000    -2.226000000
H     5.457000000    -0.809000000    -0.908000000
O    -5.896000000     0.746000000    -2.690000000
H    -6.689000000     0.223000000    -2.813000000
H    -6.095000000     1.585000000    -3.103000000
O    -2.059000000     2.509000000    -2.800000000
H    -1.287000000     3.023000000    -2.565000000
H    -2.426000000     2.231000000    -1.960000000
O     3.455000000    -2.590000000    -2.654000000
H     3.925000000    -3.357000000    -2.326000000
H     3.873000000    -1.848000000    -2.216000000
O     2.788000000     2.752000000    -2.722000000
H     2.339000000     3.547000000    -2.435000000
H     2.126000000     2.064000000    -2.649000000
O    -4.278000000    -1.452000000    -2.417000000
H    -4.717000000    -0.675000000    -2.072000000
H    -4.171000000    -1.272000000    -3.351000000
O     5.136000000     6.129000000     3.295000000
H     5.167000000     5.866000000     2.375000000
H     4.247000000     5.913000000     3.576000000
O    -2.806000000    -0.129000000    -4.178000000
H    -2.410000000     0.700000000    -3.911000000
H    -2.067000000    -0.664000000    -4.470000000
O    -0.923000000    -6.538000000    -3.169000000
H    -1.400000000    -6.365000000    -2.358000000
H    -0.325000000    -5.795000000    -3.258000000
O    -5.284000000    -0.907000000    -4.990000000
H    -5.751000000    -0.115000000    -5.256000000
H    -4.427000000    -0.595000000    -4.702000000
O     6.126000000     2.248000000     0.941000000
H     5.623000000     2.751000000     0.300000000
H     5.491000000     2.024000000     1.621000000
O     3.142000000    -3.643000000     1.641000000
H     2.239000000    -3.857000000     1.403000000
H     3.532000000    -4.484000000     1.880000000
O    -5.217000000     5.185000000    -0.853000000
H    -5.650000000     5.977000000    -0.537000000
H    -4.283000000     5.380000000    -0.788000000
O    -4.449000000    -4.233000000     1.978000000
H    -4.694000000    -4.877000000     1.313000000
H    -5.279000000    -3.846000000     2.254000000
O     0.768000000     7.648000000     0.990000000
H     0.667000000     7.716000000     1.939000000
H     0.032000000     8.147000000     0.634000000
O     1.378000000     0.492000000    -2.467000000
H     1.412000000    -0.386000000    -2.846000000
H     1.117000000     0.350000000    -1.557000000
O     1.829000000     4.158000000     6.707000000
H     2.736000000     4.422000000     6.862000000
H     1.765000000     4.072000000     5.756000000
O    -1.769000000    -0.504000000     3.227000000
H    -1.249000000     0.139000000     2.745000000
H    -1.690000000    -1.308000000     2.715000000
O    -0.357000000     4.589000000    -1.770000000
H     0.490000000     4.908000000    -1.457000000
H    -0.396000000     4.871000000    -2.684000000
O    -1.001000000     2.394000000    -5.423000000
H    -1.319000000     3.288000000    -5.299000000
H    -0.597000000     2.165000000    -4.587000000
O    -3.286000000     7.567000000    -0.318000000
H    -2.574000000     8.139000000    -0.032000000
H    -3.054000000     6.705000000     0.027000000
O    -0.444000000    -4.123000000     2.997000000
H    -0.784000000    -3.689000000     3.780000000
H    -0.981000000    -3.783000000     2.282000000
O    -2.625000000    -6.034000000    -1.082000000
H    -3.295000000    -6.658000000    -0.804000000
H    -2.965000000    -5.181000000    -0.813000000
