144
-2808.57119
O    -3.938000000    -1.429000000     0.811000000
H    -4.137000000    -1.588000000    -0.112000000
H    -4.728000000    -1.702000000     1.277000000
O    -2.558000000     2.998000000     3.980000000
H    -1.906000000     3.167000000     3.301000000
H    -2.158000000     3.330000000     4.784000000
O    -3.687000000    -4.378000000     0.588000000
H    -3.334000000    -3.527000000     0.844000000
H    -4.335000000    -4.176000000    -0.087000000
O     4.149000000    -0.423000000     2.638000000
H     4.598000000     0.277000000     2.165000000
H     4.323000000    -1.211000000     2.122000000
O     4.774000000    -1.809000000    -5.164000000
H     4.603000000    -1.952000000    -4.233000000
H     3.985000000    -2.128000000    -5.604000000
O     0.776000000    -6.258000000    -5.114000000
H     1.464000000    -6.264000000    -5.779000000
H     0.718000000    -5.344000000    -4.837000000
O     2.373000000    -0.104000000    -3.672000000
H     2.532000000     0.595000000    -3.037000000
H     2.864000000    -0.852000000    -3.332000000
O    -4.647000000     1.974000000     5.330000000
H    -3.954000000     2.276000000     4.742000000
H    -5.261000000     2.707000000     5.372000000
O     3.064000000    -2.981000000    -6.765000000
H     2.984000000    -2.489000000    -7.583000000
H     2.167000000    -3.048000000    -6.438000000
O    -5.836000000     1.429000000    -3.543000000
H    -6.438000000     2.081000000    -3.183000000
H    -5.291000000     1.170000000    -2.801000000
O    -4.751000000    -1.669000000    -1.898000000
H    -5.599000000    -1.236000000    -1.802000000
H    -4.961000000    -2.603000000    -1.926000000
O     4.958000000    -2.812000000     1.162000000
H     5.861000000    -2.732000000     1.470000000
H     5.040000000    -3.038000000     0.236000000
O     3.214000000    -0.078000000     5.188000000
H     3.699000000     0.004000000     4.367000000
H     2.302000000    -0.186000000     4.918000000
O     0.140000000     0.210000000    -5.512000000
H     0.103000000     1.166000000    -5.500000000
H     0.700000000    -0.017000000    -4.769000000
O     1.004000000    -3.427000000    -5.106000000
H     0.125000000    -3.141000000    -4.858000000
H     1.522000000    -3.330000000    -4.308000000
O    -5.465000000     4.485000000     0.835000000
H    -5.063000000     5.047000000     0.173000000
H    -4.744000000     3.949000000     1.164000000
O     4.091000000     5.478000000     3.141000000
H     4.435000000     5.964000000     3.891000000
H     3.703000000     6.149000000     2.579000000
O    -0.220000000    -3.695000000     1.852000000
H     0.733000000    -3.783000000     1.855000000
H    -0.383000000    -2.845000000     2.261000000
O     3.263000000    -6.528000000     0.268000000
H     4.149000000    -6.881000000     0.346000000
H     2.742000000    -7.051000000     0.878000000
O     4.025000000    -4.384000000    -1.295000000
H     4.360000000    -4.851000000    -2.061000000
H     3.781000000    -5.075000000    -0.681000000
O    -4.643000000     1.089000000    -0.605000000
H    -4.523000000     1.445000000     0.276000000
H    -4.097000000     0.303000000    -0.622000000
O    -1.827000000    -3.700000000    -5.303000000
H    -2.254000000    -4.555000000    -5.359000000
H    -2.542000000    -3.086000000    -5.136000000
O     0.247000000     3.069000000     4.898000000
H    -0.035000000     2.158000000     4.818000000
H     0.634000000     3.276000000     4.047000000
O     0.597000000    -0.606000000     4.340000000
H     0.160000000    -0.972000000     5.108000000
H    -0.070000000    -0.624000000     3.653000000
O     3.314000000     3.255000000     2.040000000
H     2.396000000     3.290000000     2.312000000
H     3.703000000     4.048000000     2.409000000
O    -2.689000000    -7.656000000    -1.634000000
H    -3.639000000    -7.767000000    -1.674000000
H    -2.526000000    -7.289000000    -0.765000000
O    -0.107000000     5.967000000     2.639000000
H     0.819000000     5.771000000     2.780000000
H    -0.515000000     5.111000000     2.507000000
O    -3.859000000     2.534000000     1.502000000
H    -2.913000000     2.614000000     1.623000000
H    -4.185000000     2.240000000     2.353000000
O     6.004000000    -0.640000000    -0.858000000
H     6.665000000    -0.040000000    -1.203000000
H     5.573000000    -0.146000000    -0.160000000
O    -2.692000000     2.038000000    -3.503000000
H    -1.927000000     2.604000000    -3.609000000
H    -3.426000000     2.644000000    -3.404000000
O     4.201000000    -2.004000000    -2.650000000
H     4.060000000    -2.831000000    -2.188000000
H     4.717000000    -1.475000000    -2.041000000
O     1.042000000     3.243000000    -3.280000000
H     0.783000000     3.958000000    -2.699000000
H     1.886000000     2.950000000    -2.937000000
O    -3.743000000    -2.084000000    -4.574000000
H    -3.301000000    -1.251000000    -4.739000000
H    -3.872000000    -2.103000000    -3.626000000
O    -2.723000000     0.181000000    -5.180000000
H    -2.458000000     0.812000000    -4.510000000
H    -1.957000000     0.099000000    -5.748000000
O     0.540000000    -7.086000000    -0.887000000
H     1.433000000    -6.747000000    -0.825000000
H     0.030000000    -6.524000000    -0.304000000
O     5.208000000     1.575000000     0.739000000
H     5.588000000     2.263000000     0.193000000
H     4.585000000     2.034000000     1.303000000
O    -1.880000000    -6.338000000    -4.478000000
H    -1.978000000    -6.329000000    -3.526000000
H    -1.091000000    -6.858000000    -4.633000000
O     3.292000000    -2.897000000     5.942000000
H     3.963000000    -3.550000000     5.745000000
H     3.403000000    -2.228000000     5.266000000
O     3.295000000     3.809000000    -0.718000000
H     4.079000000     4.356000000    -0.770000000
H     3.188000000     3.633000000     0.217000000
O     2.798000000    -4.320000000     2.179000000
H     2.930000000    -5.155000000     1.730000000
H     3.505000000    -3.760000000     1.856000000
O     3.166000000     2.931000000     5.898000000
H     2.458000000     2.896000000     5.255000000
H     2.985000000     2.205000000     6.494000000
O    -4.490000000     3.615000000    -1.778000000
H    -3.944000000     4.041000000    -1.117000000
H    -4.906000000     2.890000000    -1.313000000
O     2.789000000     1.042000000    -1.315000000
H     2.190000000     0.832000000    -0.600000000
H     3.096000000     1.927000000    -1.119000000
O    -1.451000000    -1.001000000     2.643000000
H    -1.429000000    -0.730000000     1.725000000
H    -2.254000000    -1.514000000     2.722000000
O    -2.511000000     5.140000000    -0.269000000
H    -1.988000000     4.731000000     0.420000000
H    -1.871000000     5.411000000    -0.927000000
O    -1.807000000     7.993000000     2.589000000
H    -2.603000000     7.463000000     2.575000000
H    -1.095000000     7.359000000     2.497000000
O     0.113000000     5.402000000    -1.619000000
H     0.503000000     5.524000000    -0.753000000
H     0.782000000     5.712000000    -2.229000000
O    -1.431000000    -5.943000000     0.860000000
H    -0.910000000    -5.292000000     1.330000000
H    -2.123000000    -5.435000000     0.436000000
