144
-2812.58829
O    -1.508000000    -3.240000000     3.138000000
H    -1.629000000    -2.294000000     3.219000000
H    -0.589000000    -3.384000000     3.363000000
O    -3.728000000     3.241000000    -2.539000000
H    -4.502000000     3.698000000    -2.866000000
H    -4.071000000     2.439000000    -2.146000000
O     2.096000000     4.422000000     2.111000000
H     1.235000000     4.314000000     2.517000000
H     2.253000000     3.592000000     1.660000000
O     1.201000000     1.430000000     3.913000000
H     0.247000000     1.382000000     3.847000000
H     1.387000000     1.241000000     4.833000000
O    -3.474000000     2.608000000     4.527000000
H    -2.725000000     2.252000000     4.050000000
H    -3.291000000     2.407000000     5.445000000
O    -4.674000000     3.270000000     1.763000000
H    -3.750000000     3.400000000     1.549000000
H    -4.675000000     3.045000000     2.694000000
O     1.205000000     2.558000000    -6.522000000
H     1.613000000     1.870000000    -5.997000000
H     1.506000000     3.374000000    -6.123000000
O     4.221000000    -0.106000000     3.554000000
H     3.536000000     0.555000000     3.455000000
H     3.949000000    -0.821000000     2.980000000
O    -3.149000000     1.108000000     6.710000000
H    -2.780000000     1.628000000     7.424000000
H    -4.052000000     0.937000000     6.980000000
O    -6.345000000     4.893000000     0.203000000
H    -6.614000000     4.539000000    -0.645000000
H    -6.127000000     4.122000000     0.727000000
O     0.176000000     4.801000000    -0.258000000
H    -0.780000000     4.753000000    -0.245000000
H     0.381000000     5.621000000     0.192000000
O     0.971000000     4.062000000     6.137000000
H     1.644000000     3.390000000     6.023000000
H     0.421000000     3.984000000     5.358000000
O    -1.073000000     0.137000000    -5.175000000
H    -1.932000000    -0.273000000    -5.068000000
H    -1.159000000     0.988000000    -4.746000000
O    -4.372000000    -0.329000000     2.036000000
H    -4.786000000     0.513000000     1.846000000
H    -3.783000000    -0.147000000     2.768000000
O     6.063000000    -2.454000000    -2.795000000
H     6.103000000    -1.593000000    -3.211000000
H     6.946000000    -2.809000000    -2.892000000
O     0.454000000     4.412000000    -2.862000000
H     1.375000000     4.661000000    -2.789000000
H     0.130000000     4.429000000    -1.961000000
O     2.001000000     0.491000000    -4.925000000
H     1.046000000     0.535000000    -4.880000000
H     2.180000000    -0.075000000    -5.676000000
O     4.144000000    -3.044000000     2.620000000
H     4.297000000    -3.647000000     3.348000000
H     4.832000000    -3.251000000     1.989000000
O     0.050000000    -6.415000000    -3.633000000
H     0.996000000    -6.464000000    -3.771000000
H    -0.237000000    -5.695000000    -4.195000000
O    -0.942000000    -3.761000000    -4.741000000
H    -1.517000000    -3.250000000    -4.170000000
H    -0.895000000    -3.252000000    -5.550000000
O     2.067000000    -5.692000000    -0.634000000
H     2.071000000    -4.780000000    -0.924000000
H     1.789000000    -6.187000000    -1.405000000
O     4.788000000     0.770000000    -3.809000000
H     5.326000000     0.222000000    -4.380000000
H     3.888000000     0.590000000    -4.082000000
O     5.227000000    -4.889000000    -4.185000000
H     5.684000000    -5.445000000    -3.554000000
H     5.296000000    -4.006000000    -3.821000000
O     4.901000000    -6.235000000    -0.536000000
H     4.781000000    -5.291000000    -0.639000000
H     4.028000000    -6.603000000    -0.670000000
O    -3.358000000     5.756000000     5.039000000
H    -4.228000000     5.831000000     4.649000000
H    -3.003000000     4.943000000     4.680000000
O    -0.485000000    -2.007000000    -6.669000000
H    -0.492000000    -1.245000000    -6.089000000
H     0.222000000    -1.829000000    -7.290000000
O    -0.911000000     4.644000000     3.493000000
H    -1.250000000     5.328000000     2.916000000
H    -1.291000000     3.834000000     3.152000000
O    -2.280000000     6.977000000     2.904000000
H    -3.048000000     7.130000000     2.354000000
H    -2.613000000     6.472000000     3.646000000
O     1.184000000    -3.773000000     3.241000000
H     1.362000000    -4.538000000     3.788000000
H     2.043000000    -3.376000000     3.098000000
O    -1.266000000    -4.352000000     0.221000000
H    -1.084000000    -5.282000000     0.351000000
H    -1.180000000    -3.966000000     1.093000000
O    -2.578000000     4.573000000    -0.322000000
H    -2.253000000     3.891000000     0.265000000
H    -3.085000000     4.100000000    -0.982000000
O    -3.774000000    -1.988000000     0.064000000
H    -4.241000000    -2.706000000     0.492000000
H    -3.834000000    -1.261000000     0.683000000
O    -2.230000000    -0.653000000     4.392000000
H    -1.965000000     0.067000000     3.820000000
H    -2.507000000    -0.225000000     5.203000000
O    -0.014000000     7.163000000     1.205000000
H    -0.437000000     7.210000000     2.062000000
H    -0.541000000     7.734000000     0.646000000
O    -3.520000000    -1.011000000    -4.676000000
H    -4.075000000    -1.201000000    -3.921000000
H    -3.791000000    -1.646000000    -5.339000000
O     2.030000000     2.049000000     0.310000000
H     1.299000000     2.181000000    -0.294000000
H     2.087000000     1.099000000     0.412000000
O     1.723000000    -4.048000000    -5.335000000
H     0.900000000    -3.709000000    -4.983000000
H     2.184000000    -3.272000000    -5.656000000
O    -4.257000000     6.234000000     1.240000000
H    -3.556000000     5.636000000     0.982000000
H    -5.028000000     5.917000000     0.770000000
O    -3.047000000     6.778000000    -1.715000000
H    -3.103000000     6.609000000    -2.655000000
H    -2.843000000     5.925000000    -1.330000000
O    -2.576000000     3.287000000    -6.392000000
H    -2.192000000     3.192000000    -5.520000000
H    -3.458000000     2.927000000    -6.305000000
O    -5.078000000     1.008000000    -1.917000000
H    -5.038000000     0.054000000    -1.976000000
H    -5.649000000     1.177000000    -1.167000000
O    -2.093000000    -2.688000000    -2.353000000
H    -1.773000000    -3.160000000    -1.584000000
H    -2.616000000    -1.971000000    -1.993000000
O    -1.445000000     2.739000000    -3.936000000
H    -2.271000000     2.963000000    -3.509000000
H    -0.794000000     3.295000000    -3.508000000
O    -1.734000000    -2.825000000     6.365000000
H    -2.372000000    -3.510000000     6.165000000
H    -1.878000000    -2.159000000     5.692000000
O     2.791000000    -5.746000000    -3.455000000
H     2.376000000    -5.287000000    -4.185000000
H     3.697000000    -5.438000000    -3.463000000
O     4.622000000     1.598000000    -1.159000000
H     3.695000000     1.484000000    -0.947000000
H     4.678000000     1.409000000    -2.095000000
O     2.812000000    -1.724000000    -6.553000000
H     3.735000000    -1.521000000    -6.703000000
H     2.451000000    -1.861000000    -7.429000000
O     4.460000000    -3.366000000    -0.699000000
H     4.204000000    -2.771000000     0.006000000
H     4.871000000    -2.800000000    -1.352000000
