144
-2788.35974
O     3.632000000     2.680000000     6.755000000
H     2.897000000     2.213000000     6.359000000
H     4.386000000     2.108000000     6.610000000
O    -1.528000000    -3.520000000     2.030000000
H    -1.823000000    -3.462000000     1.121000000
H    -0.623000000    -3.210000000     2.009000000
O    -4.766000000     0.959000000    -0.793000000
H    -3.962000000     1.236000000    -1.232000000
H    -4.643000000     1.221000000     0.119000000
O     4.571000000    -1.041000000    -2.207000000
H     4.850000000    -0.561000000    -2.987000000
H     5.345000000    -1.054000000    -1.644000000
O     1.583000000     1.578000000     5.568000000
H     0.731000000     1.876000000     5.247000000
H     1.374000000     0.874000000     6.182000000
O    -0.348000000     5.319000000     4.158000000
H     0.377000000     4.878000000     3.715000000
H    -0.176000000     5.186000000     5.090000000
O    -2.887000000     3.523000000     3.659000000
H    -2.131000000     4.083000000     3.833000000
H    -2.509000000     2.672000000     3.437000000
O     1.299000000     3.449000000     2.943000000
H     2.129000000     3.272000000     3.385000000
H     0.735000000     2.717000000     3.193000000
O     0.966000000     5.757000000     1.025000000
H     1.165000000     6.351000000     1.748000000
H     1.060000000     4.882000000     1.401000000
O    -4.992000000     4.077000000     2.281000000
H    -4.190000000     4.019000000     2.799000000
H    -5.134000000     3.188000000     1.957000000
O    -2.240000000     2.240000000     7.915000000
H    -1.870000000     1.916000000     8.737000000
H    -1.732000000     1.798000000     7.234000000
O     1.363000000    -0.620000000     7.039000000
H     2.292000000    -0.763000000     7.218000000
H     1.000000000    -1.500000000     6.938000000
O     2.218000000    -5.515000000    -6.043000000
H     1.602000000    -5.616000000    -6.768000000
H     1.909000000    -4.741000000    -5.571000000
O     3.121000000    -2.901000000    -0.371000000
H     3.332000000    -3.551000000    -1.041000000
H     3.331000000    -2.061000000    -0.778000000
O     2.201000000    -0.228000000     3.405000000
H     1.719000000     0.387000000     3.958000000
H     2.706000000     0.328000000     2.812000000
O     4.936000000     0.218000000     1.974000000
H     4.636000000    -0.659000000     2.211000000
H     5.196000000     0.143000000     1.056000000
O    -2.552000000    -4.267000000    -0.406000000
H    -2.001000000    -4.004000000    -1.143000000
H    -3.340000000    -4.627000000    -0.813000000
O    -0.874000000    -4.158000000    -2.434000000
H    -1.314000000    -4.325000000    -3.267000000
H    -0.071000000    -4.677000000    -2.480000000
O     2.256000000    -0.074000000    -5.338000000
H     2.673000000    -0.170000000    -4.482000000
H     2.900000000     0.397000000    -5.867000000
O     1.440000000    -3.088000000    -4.663000000
H     1.798000000    -2.212000000    -4.518000000
H     1.221000000    -3.405000000    -3.787000000
O     1.202000000    -5.681000000    -2.752000000
H     2.127000000    -5.498000000    -2.590000000
H     1.089000000    -6.594000000    -2.488000000
O    -6.580000000    -0.674000000     0.703000000
H    -6.043000000    -0.158000000     0.102000000
H    -7.397000000    -0.180000000     0.777000000
O    -4.706000000    -2.460000000    -4.862000000
H    -4.599000000    -2.429000000    -3.911000000
H    -5.307000000    -1.742000000    -5.058000000
O     1.172000000    -2.744000000     1.557000000
H     1.574000000    -2.852000000     0.695000000
H     1.356000000    -1.835000000     1.794000000
O    -5.434000000    -1.976000000     2.697000000
H    -4.790000000    -1.499000000     3.221000000
H    -5.654000000    -1.377000000     1.984000000
O    -2.975000000    -0.767000000     8.114000000
H    -2.649000000    -0.410000000     8.940000000
H    -2.446000000    -0.337000000     7.442000000
O    -1.908000000    -2.359000000     4.592000000
H    -2.790000000    -2.035000000     4.772000000
H    -1.952000000    -2.687000000     3.694000000
O    -4.174000000    -0.283000000     4.172000000
H    -3.363000000     0.024000000     3.768000000
H    -4.407000000     0.406000000     4.794000000
O    -1.043000000     0.729000000     5.896000000
H    -0.409000000     0.014000000     5.853000000
H    -1.001000000     1.139000000     5.032000000
O     0.437000000     3.604000000    -4.639000000
H     0.531000000     4.492000000    -4.982000000
H     0.021000000     3.115000000    -5.350000000
O    -2.434000000    -0.324000000    -6.013000000
H    -2.610000000    -1.067000000    -6.590000000
H    -1.523000000    -0.092000000    -6.192000000
O     3.694000000    -4.426000000    -2.384000000
H     4.006000000    -4.291000000    -3.279000000
H     4.180000000    -5.190000000    -2.074000000
O     2.390000000     3.098000000    -2.568000000
H     1.908000000     2.866000000    -3.361000000
H     3.011000000     3.769000000    -2.852000000
O    -4.460000000    -2.084000000    -2.183000000
H    -4.003000000    -1.244000000    -2.152000000
H    -3.856000000    -2.700000000    -1.768000000
O    -1.877000000    -6.642000000     0.779000000
H    -1.991000000    -5.706000000     0.616000000
H    -2.753000000    -6.954000000     1.007000000
O     0.171000000     0.767000000    -6.553000000
H     0.500000000     1.081000000    -7.395000000
H     0.958000000     0.541000000    -6.057000000
O    -2.769000000     4.337000000    -1.875000000
H    -2.663000000     3.393000000    -1.757000000
H    -1.879000000     4.686000000    -1.824000000
O    -0.132000000     5.202000000    -2.394000000
H     0.775000000     5.479000000    -2.270000000
H    -0.092000000     4.559000000    -3.102000000
O     5.431000000     0.038000000    -4.691000000
H     5.352000000     0.236000000    -5.624000000
H     6.374000000    -0.010000000    -4.535000000
O    -3.622000000     0.382000000    -3.534000000
H    -3.046000000     0.115000000    -4.250000000
H    -4.233000000     0.999000000    -3.936000000
O    -4.551000000     2.187000000     5.590000000
H    -3.978000000     2.683000000     5.005000000
H    -4.055000000     2.114000000     6.406000000
O     0.306000000    -2.954000000    -7.103000000
H    -0.617000000    -2.879000000    -6.863000000
H     0.778000000    -2.849000000    -6.277000000
O    -5.021000000     1.361000000     1.939000000
H    -5.763000000     0.941000000     2.375000000
H    -4.249000000     0.977000000     2.355000000
O     4.351000000     4.570000000     0.164000000
H     4.921000000     3.822000000     0.340000000
H     3.894000000     4.338000000    -0.645000000
O    -3.526000000    -5.089000000     3.490000000
H    -2.871000000    -4.670000000     2.930000000
H    -4.280000000    -5.222000000     2.917000000
O    -2.266000000     1.603000000    -1.547000000
H    -1.370000000     1.369000000    -1.303000000
H    -2.435000000     1.102000000    -2.345000000
O     4.509000000    -2.179000000    -6.324000000
H     5.385000000    -2.123000000    -6.706000000
H     4.541000000    -1.596000000    -5.566000000
O     4.675000000     1.761000000    -1.121000000
H     3.920000000     2.089000000    -1.610000000
H     4.641000000     0.811000000    -1.236000000
