144
-2775.70900
O    -4.059000000    -4.828000000    -1.296000000
H    -4.218000000    -3.911000000    -1.073000000
H    -4.551000000    -4.966000000    -2.105000000
O    -0.741000000    -6.088000000    -3.559000000
H    -1.206000000    -6.795000000    -3.111000000
H    -1.407000000    -5.416000000    -3.701000000
O     5.541000000    -0.943000000     0.267000000
H     4.698000000    -0.941000000    -0.187000000
H     5.848000000    -1.847000000     0.199000000
O    -5.830000000     1.581000000    -1.992000000
H    -6.153000000     1.622000000    -2.892000000
H    -5.281000000     0.797000000    -1.970000000
O     2.402000000    -4.727000000    -7.295000000
H     2.549000000    -4.052000000    -6.632000000
H     2.182000000    -5.512000000    -6.794000000
O     2.024000000    -6.206000000     0.330000000
H     1.681000000    -5.362000000     0.623000000
H     1.325000000    -6.830000000     0.528000000
O     4.873000000     2.486000000    -1.847000000
H     3.940000000     2.583000000    -1.652000000
H     4.964000000     1.576000000    -2.129000000
O    -2.926000000     4.949000000     5.994000000
H    -3.393000000     4.658000000     5.211000000
H    -2.043000000     5.151000000     5.685000000
O    -1.163000000     1.880000000     5.156000000
H    -0.529000000     2.564000000     4.941000000
H    -2.014000000     2.273000000     4.965000000
O    -2.614000000    -3.818000000    -4.070000000
H    -2.871000000    -3.000000000    -4.496000000
H    -3.432000000    -4.305000000    -3.972000000
O    -5.388000000    -2.124000000     2.375000000
H    -4.721000000    -1.616000000     2.837000000
H    -4.917000000    -2.884000000     2.034000000
O     0.126000000    -4.018000000     0.644000000
H    -0.488000000    -3.346000000     0.940000000
H    -0.431000000    -4.719000000     0.307000000
O     0.472000000     1.128000000     7.127000000
H     0.035000000     1.449000000     6.338000000
H     0.193000000     1.729000000     7.817000000
O    -3.459000000     6.632000000     0.510000000
H    -3.355000000     7.503000000     0.893000000
H    -2.567000000     6.356000000     0.300000000
O     7.376000000    -2.953000000    -2.765000000
H     6.427000000    -3.001000000    -2.882000000
H     7.727000000    -2.941000000    -3.656000000
O    -2.655000000     1.432000000    -3.754000000
H    -2.112000000     1.659000000    -2.999000000
H    -3.241000000     0.747000000    -3.430000000
O    -4.945000000     4.499000000     1.162000000
H    -4.354000000     5.191000000     0.865000000
H    -4.711000000     4.362000000     2.080000000
O     4.184000000    -5.922000000    -1.868000000
H     3.266000000    -6.066000000    -1.641000000
H     4.281000000    -4.970000000    -1.885000000
O     5.582000000     0.577000000     3.764000000
H     4.912000000     0.316000000     3.132000000
H     6.311000000    -0.021000000     3.602000000
O     0.019000000     5.134000000     5.538000000
H     0.800000000     4.916000000     6.046000000
H     0.086000000     6.077000000     5.388000000
O     7.478000000     0.150000000    -2.450000000
H     7.487000000    -0.802000000    -2.351000000
H     6.558000000     0.367000000    -2.602000000
O    -4.933000000    -2.365000000    -0.896000000
H    -5.194000000    -2.144000000    -0.001000000
H    -5.724000000    -2.729000000    -1.293000000
O    -5.917000000     1.174000000     3.625000000
H    -6.753000000     0.799000000     3.902000000
H    -5.954000000     1.159000000     2.668000000
O     4.786000000     4.514000000     0.125000000
H     4.360000000     4.471000000     0.980000000
H     4.946000000     3.599000000    -0.109000000
O    -6.538000000     2.240000000     0.879000000
H    -6.156000000     3.083000000     1.123000000
H    -6.545000000     2.248000000    -0.078000000
O    -1.586000000     2.854000000    -1.650000000
H    -1.192000000     2.065000000    -1.279000000
H    -1.034000000     3.569000000    -1.334000000
O     1.019000000     0.250000000    -7.470000000
H     1.111000000    -0.483000000    -8.080000000
H     1.155000000    -0.139000000    -6.606000000
O    -4.499000000     3.345000000     4.218000000
H    -4.925000000     2.581000000     3.829000000
H    -4.427000000     3.131000000     5.149000000
O    -4.070000000     3.939000000    -2.310000000
H    -4.851000000     3.387000000    -2.290000000
H    -3.344000000     3.332000000    -2.165000000
O     0.471000000     4.097000000     3.119000000
H     0.237000000     4.246000000     4.035000000
H     0.435000000     4.966000000     2.719000000
O     0.266000000     4.408000000     0.037000000
H     0.146000000     4.166000000     0.955000000
H     0.287000000     5.365000000     0.042000000
O    -4.472000000    -0.573000000    -3.012000000
H    -4.443000000    -1.147000000    -2.247000000
H    -4.722000000    -1.150000000    -3.734000000
O     7.441000000     1.140000000     0.249000000
H     6.748000000     0.500000000     0.409000000
H     7.640000000     1.050000000    -0.683000000
O     3.174000000     3.525000000     2.181000000
H     2.333000000     3.727000000     2.590000000
H     3.578000000     2.885000000     2.768000000
O    -1.690000000    -2.354000000     1.532000000
H    -1.532000000    -1.457000000     1.237000000
H    -2.162000000    -2.254000000     2.359000000
O    -3.140000000    -1.319000000     4.178000000
H    -2.501000000    -1.467000000     4.875000000
H    -3.985000000    -1.312000000     4.625000000
O     2.400000000     2.789000000    -0.619000000
H     1.809000000     3.539000000    -0.689000000
H     2.647000000     2.765000000     0.306000000
O     4.261000000    -0.176000000    -5.644000000
H     3.772000000     0.542000000    -6.046000000
H     5.071000000    -0.228000000    -6.152000000
O     2.259000000    -2.267000000    -5.505000000
H     1.858000000    -2.334000000    -4.638000000
H     2.884000000    -1.547000000    -5.425000000
O     4.608000000    -3.366000000    -2.840000000
H     3.934000000    -2.750000000    -2.553000000
H     4.280000000    -3.710000000    -3.671000000
O     3.822000000    -0.931000000     2.561000000
H     3.103000000    -1.205000000     1.992000000
H     4.612000000    -1.227000000     2.107000000
O     1.163000000    -2.361000000    -8.328000000
H     1.265000000    -2.499000000    -7.386000000
H     0.992000000    -3.234000000    -8.681000000
O     4.909000000    -0.059000000    -2.936000000
H     4.128000000    -0.516000000    -2.625000000
H     4.964000000    -0.283000000    -3.865000000
O     3.689000000    -2.068000000     5.265000000
H     3.534000000    -2.998000000     5.102000000
H     3.506000000    -1.644000000     4.427000000
O     3.151000000    -3.246000000     0.552000000
H     3.305000000    -2.863000000    -0.312000000
H     2.241000000    -3.541000000     0.525000000
O     2.153000000     2.083000000    -3.864000000
H     1.356000000     1.614000000    -4.111000000
H     2.859000000     1.457000000    -4.022000000
O     0.210000000     0.279000000    -4.552000000
H     0.735000000    -0.282000000    -3.981000000
H    -0.696000000     0.028000000    -4.368000000
O     1.774000000    -4.937000000    -3.594000000
H     1.811000000    -3.999000000    -3.405000000
H     0.863000000    -5.178000000    -3.430000000
