144
-2836.98341
O     0.476000000    -0.662000000     4.322000000
H     0.080000000    -0.024000000     3.728000000
H    -0.039000000    -1.458000000     4.196000000
O    -4.119000000    -2.020000000    -1.391000000
H    -3.384000000    -1.479000000    -1.679000000
H    -4.895000000    -1.555000000    -1.705000000
O     4.793000000     0.054000000    -4.256000000
H     3.925000000     0.333000000    -4.545000000
H     4.905000000     0.467000000    -3.399000000
O    -3.883000000     3.955000000     4.580000000
H    -3.393000000     4.197000000     3.794000000
H    -3.264000000     3.441000000     5.099000000
O     1.786000000     1.625000000     5.831000000
H     1.565000000     0.697000000     5.742000000
H     1.976000000     1.737000000     6.763000000
O    -0.903000000    -2.810000000     4.213000000
H    -1.166000000    -3.452000000     3.553000000
H    -1.711000000    -2.602000000     4.680000000
O     2.204000000     1.889000000     2.873000000
H     2.540000000     1.732000000     3.755000000
H     2.720000000     1.311000000     2.312000000
O    -4.043000000     2.748000000     0.018000000
H    -3.619000000     2.807000000    -0.838000000
H    -3.319000000     2.762000000     0.645000000
O    -4.731000000     0.864000000     2.624000000
H    -3.822000000     0.803000000     2.920000000
H    -4.814000000     1.758000000     2.292000000
O    -1.698000000     7.286000000     2.971000000
H    -2.044000000     6.449000000     2.663000000
H    -0.851000000     7.067000000     3.360000000
O    -0.869000000     4.591000000     2.316000000
H    -0.326000000     4.317000000     3.055000000
H    -1.561000000     3.931000000     2.270000000
O    -4.009000000     5.786000000     1.912000000
H    -3.474000000     5.389000000     1.224000000
H    -4.669000000     6.293000000     1.439000000
O    -3.442000000     2.202000000     7.452000000
H    -2.925000000     2.706000000     8.080000000
H    -2.835000000     2.020000000     6.734000000
O     0.777000000     4.458000000    -2.637000000
H     1.236000000     4.606000000    -1.810000000
H     1.346000000     4.852000000    -3.300000000
O    -5.453000000    -1.250000000     4.302000000
H    -5.482000000    -0.613000000     3.589000000
H    -4.668000000    -1.018000000     4.798000000
O    -1.476000000    -3.945000000    -2.446000000
H    -1.008000000    -4.277000000    -1.680000000
H    -2.237000000    -3.491000000    -2.084000000
O     6.193000000    -1.387000000    -1.536000000
H     5.857000000    -1.367000000    -2.432000000
H     5.466000000    -1.725000000    -1.014000000
O     0.434000000    -5.743000000    -0.257000000
H     0.392000000    -6.508000000    -0.831000000
H     1.201000000    -5.900000000     0.294000000
O     0.238000000    -3.030000000    -4.990000000
H    -0.653000000    -2.709000000    -4.852000000
H     0.255000000    -3.884000000    -4.557000000
O     3.303000000    -1.591000000     4.451000000
H     2.421000000    -1.244000000     4.317000000
H     3.165000000    -2.503000000     4.706000000
O     1.242000000     5.390000000     0.012000000
H     0.529000000     5.271000000     0.639000000
H     2.034000000     5.177000000     0.506000000
O     4.758000000     1.990000000    -2.303000000
H     4.626000000     2.754000000    -2.865000000
H     4.532000000     2.298000000    -1.425000000
O     2.589000000    -6.043000000     1.275000000
H     3.455000000    -6.206000000     0.901000000
H     2.537000000    -6.638000000     2.023000000
O    -6.196000000    -1.899000000     0.985000000
H    -5.776000000    -1.040000000     0.929000000
H    -7.085000000    -1.752000000     0.662000000
O    -2.199000000    -1.757000000    -4.555000000
H    -2.551000000    -0.990000000    -5.006000000
H    -1.852000000    -1.412000000    -3.732000000
O     5.456000000    -4.816000000    -1.772000000
H     5.455000000    -4.329000000    -2.597000000
H     5.979000000    -4.279000000    -1.177000000
O     5.220000000    -3.419000000    -4.181000000
H     4.411000000    -2.978000000    -4.439000000
H     5.902000000    -2.990000000    -4.699000000
O    -3.475000000    -3.915000000     0.948000000
H    -3.664000000    -4.601000000     0.307000000
H    -3.851000000    -3.121000000     0.567000000
O    -6.228000000     4.076000000     2.813000000
H    -5.659000000     4.733000000     2.411000000
H    -5.723000000     3.745000000     3.556000000
O     4.291000000    -2.535000000    -0.018000000
H     3.605000000    -3.157000000    -0.262000000
H     4.584000000    -2.828000000     0.845000000
O     0.338000000     3.718000000     4.508000000
H     0.882000000     2.987000000     4.798000000
H     0.715000000     4.484000000     4.941000000
O    -2.572000000    -0.735000000     5.311000000
H    -2.098000000    -0.191000000     4.682000000
H    -2.295000000    -0.408000000     6.167000000
O     1.360000000     2.161000000    -6.889000000
H     0.682000000     1.884000000    -7.505000000
H     1.027000000     1.897000000    -6.032000000
O    -4.289000000    -3.663000000     3.534000000
H    -4.110000000    -3.833000000     2.609000000
H    -4.808000000    -2.859000000     3.533000000
O    -1.959000000     2.330000000     5.295000000
H    -1.409000000     3.076000000     5.056000000
H    -2.165000000     1.908000000     4.461000000
O     0.416000000    -2.691000000    -7.695000000
H     0.560000000    -2.998000000    -6.800000000
H    -0.445000000    -2.274000000    -7.669000000
O     0.057000000     1.366000000    -4.569000000
H     0.183000000     0.419000000    -4.499000000
H    -0.849000000     1.507000000    -4.293000000
O    -1.949000000     3.344000000    -2.435000000
H    -2.261000000     4.120000000    -2.899000000
H    -0.998000000     3.446000000    -2.410000000
O     2.426000000     4.712000000     2.537000000
H     2.297000000     5.016000000     3.436000000
H     2.356000000     3.759000000     2.595000000
O    -3.078000000     7.010000000    -0.822000000
H    -2.722000000     7.854000000    -1.101000000
H    -2.378000000     6.615000000    -0.302000000
O     2.753000000    -2.474000000    -5.781000000
H     2.731000000    -3.112000000    -6.494000000
H     1.844000000    -2.413000000    -5.487000000
O     4.088000000     0.425000000     0.862000000
H     5.041000000     0.446000000     0.942000000
H     3.880000000    -0.498000000     0.715000000
O    -2.430000000     0.197000000    -1.970000000
H    -2.537000000     1.125000000    -2.182000000
H    -1.713000000     0.177000000    -1.337000000
O    -5.862000000     0.837000000    -0.376000000
H    -6.512000000     1.370000000     0.083000000
H    -5.019000000     1.169000000    -0.068000000
O     1.174000000    -6.269000000     4.137000000
H     0.769000000    -5.731000000     3.456000000
H     0.447000000    -6.527000000     4.703000000
O    -6.202000000     2.883000000     5.740000000
H    -5.545000000     2.291000000     5.374000000
H    -5.710000000     3.668000000     5.980000000
O     3.037000000     3.078000000    -0.061000000
H     3.182000000     2.208000000     0.311000000
H     2.137000000     3.296000000     0.182000000
O    -0.948000000    -5.037000000     2.052000000
H    -1.575000000    -4.358000000     1.805000000
H    -0.494000000    -5.253000000     1.237000000
