144
-2846.64308
O    -3.493000000    -5.293000000     4.065000000
H    -4.288000000    -5.680000000     3.699000000
H    -3.207000000    -4.663000000     3.403000000
O    -4.312000000    -4.881000000    -1.515000000
H    -5.037000000    -4.469000000    -1.046000000
H    -3.896000000    -5.447000000    -0.865000000
O    -3.019000000    -3.762000000     1.564000000
H    -2.956000000    -4.526000000     0.990000000
H    -3.582000000    -3.151000000     1.088000000
O    -6.409000000    -1.067000000     1.834000000
H    -6.007000000    -0.513000000     2.503000000
H    -7.168000000    -0.566000000     1.534000000
O     0.980000000     4.025000000     3.666000000
H     0.805000000     4.424000000     2.813000000
H     0.824000000     3.091000000     3.530000000
O     2.977000000     3.994000000     1.077000000
H     3.062000000     4.918000000     0.843000000
H     2.079000000     3.767000000     0.838000000
O    -4.617000000     1.595000000     1.415000000
H    -4.409000000     1.038000000     2.166000000
H    -4.373000000     2.477000000     1.696000000
O     3.988000000    -1.351000000    -4.326000000
H     3.166000000    -1.834000000    -4.246000000
H     3.728000000    -0.430000000    -4.302000000
O    -5.931000000     4.666000000     1.545000000
H    -4.998000000     4.643000000     1.761000000
H    -6.338000000     5.107000000     2.290000000
O    -4.881000000     5.014000000    -1.237000000
H    -5.546000000     4.718000000    -1.858000000
H    -5.354000000     5.116000000    -0.411000000
O     5.484000000    -2.432000000     0.167000000
H     4.838000000    -1.854000000     0.574000000
H     4.971000000    -3.168000000    -0.165000000
O     1.762000000     5.214000000    -1.904000000
H     1.234000000     4.719000000    -1.277000000
H     2.260000000     5.828000000    -1.365000000
O     1.425000000     0.211000000    -4.239000000
H     1.620000000     1.135000000    -4.083000000
H     1.376000000    -0.174000000    -3.365000000
O    -2.067000000     3.127000000    -4.341000000
H    -2.891000000     2.886000000    -4.764000000
H    -2.224000000     2.977000000    -3.408000000
O     0.775000000    -4.892000000     3.065000000
H     0.253000000    -5.239000000     3.788000000
H     0.300000000    -4.112000000     2.779000000
O     0.421000000    -7.473000000    -2.793000000
H    -0.282000000    -7.418000000    -2.146000000
H     0.329000000    -6.677000000    -3.316000000
O    -2.737000000    -0.032000000    -2.007000000
H    -3.211000000     0.791000000    -1.886000000
H    -2.017000000     0.011000000    -1.379000000
O     0.824000000     6.114000000     1.373000000
H     0.569000000     5.288000000     0.964000000
H     0.416000000     6.787000000     0.828000000
O     4.852000000     3.748000000    -1.598000000
H     4.488000000     3.338000000    -2.383000000
H     5.299000000     3.036000000    -1.141000000
O    -1.267000000    -2.948000000    -4.696000000
H    -1.751000000    -2.990000000    -3.871000000
H    -1.464000000    -2.079000000    -5.046000000
O    -0.401000000     7.767000000    -0.287000000
H    -0.494000000     8.450000000    -0.952000000
H    -1.072000000     7.122000000    -0.511000000
O     1.572000000    -3.023000000    -4.841000000
H     1.877000000    -3.907000000    -4.635000000
H     0.619000000    -3.078000000    -4.780000000
O    -4.268000000    -1.639000000     0.237000000
H    -5.047000000    -1.839000000     0.757000000
H    -4.509000000    -0.860000000    -0.265000000
O     3.751000000    -0.733000000     1.809000000
H     2.823000000    -0.575000000     1.634000000
H     4.134000000     0.141000000     1.876000000
O    -0.376000000    -7.238000000     0.436000000
H     0.493000000    -6.847000000     0.352000000
H    -0.206000000    -8.155000000     0.652000000
O     5.425000000    -3.388000000    -3.405000000
H     5.245000000    -3.465000000    -2.468000000
H     4.980000000    -2.582000000    -3.669000000
O     2.592000000    -5.674000000    -4.238000000
H     2.354000000    -6.565000000    -4.495000000
H     3.096000000    -5.784000000    -3.432000000
O    -2.335000000     0.280000000     3.177000000
H    -1.844000000    -0.324000000     2.619000000
H    -1.662000000     0.807000000     3.608000000
O    -3.241000000     4.112000000     2.187000000
H    -2.801000000     4.857000000     2.597000000
H    -2.599000000     3.766000000     1.567000000
O    -2.487000000    -2.748000000    -2.489000000
H    -2.526000000    -1.880000000    -2.087000000
H    -3.121000000    -3.269000000    -1.997000000
O    -3.108000000     2.703000000    -1.681000000
H    -2.540000000     2.951000000    -0.951000000
H    -3.869000000     3.278000000    -1.598000000
O     2.912000000     6.853000000     3.409000000
H     3.651000000     6.767000000     2.808000000
H     2.139000000     6.748000000     2.855000000
O    -1.090000000    -5.657000000    -4.537000000
H    -1.803000000    -5.853000000    -5.145000000
H    -0.968000000    -4.710000000    -4.609000000
O    -2.359000000     6.564000000     3.369000000
H    -2.139000000     6.469000000     4.296000000
H    -2.062000000     7.444000000     3.141000000
O    -6.032000000     1.518000000    -0.819000000
H    -5.504000000     1.629000000    -0.028000000
H    -6.804000000     2.063000000    -0.670000000
O     4.571000000     1.783000000     1.593000000
H     5.265000000     1.913000000     0.948000000
H     4.064000000     2.595000000     1.568000000
O    -2.176000000     5.786000000    -0.787000000
H    -2.006000000     4.968000000    -0.319000000
H    -2.910000000     5.582000000    -1.366000000
O    -0.331000000     6.516000000    -3.885000000
H    -0.179000000     5.787000000    -4.486000000
H     0.351000000     6.425000000    -3.220000000
O    -4.887000000     0.416000000     3.973000000
H    -3.932000000     0.369000000     3.949000000
H    -5.110000000     0.292000000     4.896000000
O     2.269000000     2.881000000    -3.546000000
H     2.831000000     2.969000000    -4.315000000
H     2.386000000     3.702000000    -3.068000000
O     4.890000000    -5.252000000     2.203000000
H     4.521000000    -4.460000000     2.595000000
H     4.368000000    -5.966000000     2.569000000
O     1.988000000    -6.072000000     0.730000000
H     1.740000000    -5.380000000     1.343000000
H     2.362000000    -6.759000000     1.283000000
O     3.336000000     6.742000000    -0.264000000
H     4.284000000     6.615000000    -0.220000000
H     3.129000000     7.274000000     0.504000000
O    -3.118000000    -6.265000000     0.482000000
H    -3.418000000    -7.127000000     0.771000000
H    -2.167000000    -6.294000000     0.589000000
O     3.463000000    -4.175000000    -0.866000000
H     2.725000000    -3.896000000    -1.408000000
H     3.159000000    -4.979000000    -0.443000000
O     1.204000000    -1.420000000     3.734000000
H     1.920000000    -2.056000000     3.736000000
H     0.416000000    -1.949000000     3.606000000
O     0.528000000     1.173000000     3.677000000
H     0.866000000     1.231000000     4.571000000
H     0.649000000     0.255000000     3.434000000
O    -1.096000000    -3.019000000     3.230000000
H    -1.727000000    -3.221000000     2.539000000
H    -1.511000000    -3.335000000     4.033000000
