144
-2800.72038
O    -6.054000000    -2.052000000     0.884000000
H    -5.510000000    -1.481000000     0.341000000
H    -5.626000000    -2.048000000     1.740000000
O    -7.007000000     2.201000000     3.047000000
H    -7.745000000     2.303000000     2.446000000
H    -6.374000000     2.860000000     2.763000000
O     1.794000000     0.024000000     2.224000000
H     1.233000000    -0.011000000     1.449000000
H     1.334000000     0.607000000     2.827000000
O     1.848000000     4.384000000     1.435000000
H     2.463000000     3.843000000     0.941000000
H     1.108000000     4.511000000     0.840000000
O     0.119000000     2.863000000     6.054000000
H     0.042000000     3.087000000     5.127000000
H    -0.761000000     2.992000000     6.406000000
O    -4.201000000     6.380000000    -0.197000000
H    -3.337000000     6.504000000     0.195000000
H    -4.123000000     5.568000000    -0.698000000
O    -3.605000000     2.319000000     3.701000000
H    -3.787000000     3.241000000     3.883000000
H    -2.949000000     2.338000000     3.004000000
O     1.521000000    -5.977000000     2.425000000
H     1.403000000    -6.868000000     2.096000000
H     0.655000000    -5.577000000     2.348000000
O    -1.673000000    -1.713000000     3.769000000
H    -1.267000000    -0.850000000     3.685000000
H    -1.180000000    -2.143000000     4.468000000
O     6.385000000     1.767000000     0.576000000
H     6.249000000     2.447000000     1.236000000
H     5.503000000     1.471000000     0.352000000
O    -1.564000000     6.184000000     0.361000000
H    -1.105000000     5.361000000     0.190000000
H    -0.869000000     6.839000000     0.417000000
O    -2.773000000     5.870000000    -2.961000000
H    -2.027000000     5.273000000    -2.908000000
H    -2.385000000     6.744000000    -2.919000000
O     6.389000000    -0.982000000     2.134000000
H     6.103000000    -0.373000000     1.452000000
H     5.583000000    -1.406000000     2.428000000
O    -0.307000000    -2.871000000    -3.336000000
H    -0.762000000    -3.031000000    -4.163000000
H    -0.732000000    -2.093000000    -2.975000000
O    -2.849000000     1.897000000    -2.592000000
H    -2.248000000     2.111000000    -3.306000000
H    -3.708000000     1.846000000    -3.011000000
O    -5.965000000     4.674000000     2.131000000
H    -5.021000000     4.830000000     2.162000000
H    -6.133000000     4.403000000     1.228000000
O    -3.374000000     5.195000000     2.688000000
H    -3.176000000     5.949000000     2.133000000
H    -2.920000000     4.464000000     2.270000000
O     3.595000000     3.573000000    -0.253000000
H     3.228000000     3.433000000    -1.126000000
H     3.932000000     4.469000000    -0.276000000
O    -5.521000000     0.283000000     4.341000000
H    -5.968000000     0.885000000     3.746000000
H    -4.723000000     0.745000000     4.596000000
O    -4.449000000    -0.780000000    -0.873000000
H    -3.914000000    -0.183000000    -1.395000000
H    -3.842000000    -1.145000000    -0.229000000
O     3.278000000    -4.448000000     4.005000000
H     2.733000000    -5.134000000     3.622000000
H     3.247000000    -3.734000000     3.369000000
O     4.351000000    -4.653000000    -1.429000000
H     3.457000000    -4.491000000    -1.730000000
H     4.281000000    -4.676000000    -0.474000000
O    -2.891000000    -4.001000000    -1.946000000
H    -2.816000000    -3.191000000    -2.450000000
H    -2.155000000    -3.972000000    -1.335000000
O    -2.445000000    -0.899000000    -3.091000000
H    -2.792000000    -0.655000000    -3.949000000
H    -2.098000000    -0.082000000    -2.732000000
O    -4.480000000     5.586000000     5.291000000
H    -4.094000000     5.398000000     4.436000000
H    -3.741000000     5.861000000     5.833000000
O    -0.122000000     0.586000000     4.313000000
H    -0.410000000     1.471000000     4.534000000
H     0.387000000     0.302000000     5.073000000
O    -0.071000000     3.540000000     3.366000000
H     0.536000000     4.003000000     2.790000000
H    -0.805000000     3.301000000     2.799000000
O     3.955000000     0.543000000     0.352000000
H     3.390000000     1.288000000     0.145000000
H     3.570000000     0.163000000     1.141000000
O     3.658000000    -1.757000000     3.434000000
H     3.043000000    -1.321000000     2.843000000
H     3.900000000    -1.081000000     4.067000000
O     2.939000000     2.800000000    -2.650000000
H     3.110000000     3.097000000    -3.544000000
H     3.211000000     1.882000000    -2.646000000
O    -3.867000000     3.481000000    -0.421000000
H    -3.182000000     3.287000000     0.218000000
H    -3.794000000     2.782000000    -1.071000000
O     2.035000000     6.123000000    -2.281000000
H     2.769000000     5.534000000    -2.452000000
H     1.692000000     6.338000000    -3.148000000
O    -4.209000000    -1.630000000     2.677000000
H    -4.741000000    -0.999000000     3.162000000
H    -3.355000000    -1.605000000     3.107000000
O    -6.694000000     4.058000000    -0.375000000
H    -5.886000000     3.621000000    -0.644000000
H    -7.114000000     4.312000000    -1.196000000
O     3.969000000    -4.473000000     1.164000000
H     4.652000000    -4.227000000     1.788000000
H     3.528000000    -5.217000000     1.573000000
O    -0.022000000    -6.987000000    -1.453000000
H     0.028000000    -7.308000000    -0.553000000
H    -0.364000000    -7.727000000    -1.953000000
O     1.210000000    -5.117000000    -2.979000000
H     0.651000000    -4.342000000    -3.030000000
H     0.812000000    -5.656000000    -2.296000000
O     0.965000000     7.463000000    -0.380000000
H     1.377000000     6.880000000    -1.018000000
H     0.685000000     8.220000000    -0.894000000
O     0.869000000    -4.799000000    -5.727000000
H     0.038000000    -5.268000000    -5.645000000
H     1.252000000    -4.836000000    -4.850000000
O     1.238000000     0.181000000    -4.506000000
H     1.024000000    -0.612000000    -4.996000000
H     2.161000000     0.078000000    -4.274000000
O    -0.366000000     4.958000000    -2.419000000
H     0.450000000     5.412000000    -2.209000000
H    -0.608000000     4.513000000    -1.607000000
O     5.571000000    -0.651000000    -1.535000000
H     4.960000000    -0.360000000    -0.859000000
H     5.927000000    -1.474000000    -1.199000000
O    -3.459000000    -4.249000000     1.379000000
H    -2.625000000    -4.433000000     1.811000000
H    -3.729000000    -3.400000000     1.730000000
O     3.798000000    -0.019000000    -3.700000000
H     4.469000000     0.129000000    -4.366000000
H     4.270000000    -0.418000000    -2.969000000
O    -0.689000000     2.239000000    -4.042000000
H    -0.437000000     2.968000000    -3.474000000
H     0.017000000     1.601000000    -3.940000000
O     2.633000000     5.058000000     3.896000000
H     2.321000000     4.884000000     3.008000000
H     3.521000000     5.395000000     3.777000000
O     3.787000000    -3.051000000    -4.270000000
H     3.314000000    -3.280000000    -3.470000000
H     3.119000000    -2.678000000    -4.845000000
O    -1.239000000    -4.377000000     2.941000000
H    -1.173000000    -3.471000000     3.243000000
H    -1.678000000    -4.836000000     3.658000000
