144
-2791.57322
O    -5.711000000     2.358000000     0.796000000
H    -5.557000000     1.502000000     0.398000000
H    -6.203000000     2.165000000     1.595000000
O    -3.265000000     4.725000000     2.625000000
H    -4.176000000     4.574000000     2.372000000
H    -2.755000000     4.202000000     2.007000000
O     3.986000000    -1.826000000     2.305000000
H     4.518000000    -1.485000000     1.585000000
H     3.690000000    -1.046000000     2.774000000
O     3.098000000     4.257000000     0.278000000
H     3.541000000     3.974000000    -0.521000000
H     2.173000000     4.305000000     0.036000000
O    -4.530000000    -2.718000000    -4.731000000
H    -5.475000000    -2.821000000    -4.845000000
H    -4.424000000    -2.480000000    -3.810000000
O    -0.105000000     3.276000000     5.729000000
H    -0.319000000     2.459000000     6.181000000
H    -0.798000000     3.377000000     5.077000000
O     2.118000000    -3.859000000    -4.688000000
H     1.297000000    -3.873000000    -4.196000000
H     2.200000000    -4.745000000    -5.041000000
O    -3.231000000     6.993000000     3.748000000
H    -3.680000000     7.117000000     4.585000000
H    -3.492000000     6.117000000     3.464000000
O     4.560000000    -0.332000000    -4.128000000
H     5.005000000     0.504000000    -4.270000000
H     4.156000000    -0.244000000    -3.265000000
O    -3.930000000    -3.885000000     1.448000000
H    -3.653000000    -4.250000000     2.288000000
H    -4.005000000    -2.944000000     1.609000000
O     0.028000000     5.884000000     2.313000000
H    -0.897000000     6.084000000     2.453000000
H     0.027000000     5.028000000     1.885000000
O     2.286000000     0.073000000     3.943000000
H     2.754000000     0.388000000     4.716000000
H     1.490000000    -0.329000000     4.292000000
O    -0.422000000    -3.974000000    -3.837000000
H    -1.154000000    -4.246000000    -3.284000000
H    -0.451000000    -4.569000000    -4.585000000
O    -3.205000000     5.058000000    -2.898000000
H    -3.618000000     5.915000000    -3.006000000
H    -3.646000000     4.673000000    -2.141000000
O    -3.272000000     1.845000000     2.726000000
H    -3.386000000     2.430000000     3.475000000
H    -2.549000000     2.230000000     2.230000000
O     5.452000000     0.362000000     0.774000000
H     5.021000000     0.780000000     1.519000000
H     6.227000000    -0.057000000     1.150000000
O     2.697000000     3.195000000    -3.481000000
H     2.380000000     3.943000000    -2.974000000
H     2.233000000     2.443000000    -3.113000000
O    -3.843000000    -1.000000000     2.266000000
H    -3.831000000    -0.043000000     2.281000000
H    -3.268000000    -1.258000000     2.987000000
O    -3.955000000     3.839000000    -0.609000000
H    -4.648000000     3.403000000    -0.113000000
H    -3.167000000     3.713000000    -0.079000000
O    -4.506000000     6.704000000     0.768000000
H    -4.213000000     5.879000000     0.381000000
H    -3.962000000     7.372000000     0.351000000
O    -6.414000000    -1.398000000    -2.664000000
H    -5.838000000    -1.191000000    -1.928000000
H    -6.912000000    -0.594000000    -2.812000000
O     2.953000000    -6.579000000     2.647000000
H     3.568000000    -6.290000000     1.973000000
H     2.391000000    -5.820000000     2.800000000
O    -1.719000000    -5.325000000     0.231000000
H    -2.599000000    -5.161000000     0.569000000
H    -1.815000000    -5.280000000    -0.720000000
O    -5.200000000    -0.285000000     0.053000000
H    -4.735000000    -0.777000000     0.729000000
H    -4.565000000    -0.194000000    -0.658000000
O     2.572000000     7.182000000     1.906000000
H     2.903000000     6.293000000     2.036000000
H     1.678000000     7.156000000     2.245000000
O    -0.089000000    -2.737000000     2.493000000
H     0.585000000    -2.108000000     2.235000000
H    -0.211000000    -3.287000000     1.719000000
O     0.312000000     1.124000000    -3.406000000
H    -0.539000000     1.389000000    -3.059000000
H     0.192000000     0.210000000    -3.665000000
O     5.614000000     4.986000000     1.597000000
H     5.694000000     5.568000000     0.841000000
H     4.717000000     4.656000000     1.551000000
O    -1.052000000     6.422000000    -0.477000000
H    -0.484000000     7.122000000    -0.155000000
H    -0.697000000     5.625000000    -0.082000000
O    -2.662000000    -4.900000000    -2.816000000
H    -3.572000000    -4.677000000    -2.620000000
H    -2.719000000    -5.540000000    -3.525000000
O    -2.080000000    -1.600000000     4.340000000
H    -1.329000000    -1.746000000     3.765000000
H    -1.696000000    -1.312000000     5.168000000
O     3.117000000     5.812000000    -2.120000000
H     3.172000000     6.561000000    -1.526000000
H     2.188000000     5.753000000    -2.345000000
O     4.315000000    -3.567000000    -2.856000000
H     3.469000000    -3.167000000    -2.654000000
H     4.558000000    -3.197000000    -3.705000000
O     1.305000000     0.115000000    -6.113000000
H     0.960000000     0.875000000    -5.645000000
H     1.040000000    -0.635000000    -5.581000000
O     2.023000000    -6.357000000    -1.173000000
H     1.934000000    -7.251000000    -0.842000000
H     1.138000000    -5.995000000    -1.126000000
O    -0.251000000    -6.358000000     2.304000000
H    -0.642000000    -5.927000000     1.543000000
H    -0.252000000    -5.686000000     2.986000000
O    -0.344000000    -1.362000000    -4.367000000
H    -1.059000000    -1.346000000    -5.004000000
H    -0.251000000    -2.286000000    -4.134000000
O     4.075000000    -6.206000000    -3.104000000
H     3.395000000    -6.376000000    -2.453000000
H     4.164000000    -5.253000000    -3.116000000
O    -0.088000000     6.006000000     5.083000000
H    -0.248000000     5.896000000     4.146000000
H     0.010000000     5.114000000     5.416000000
O     4.486000000    -2.700000000    -5.332000000
H     3.592000000    -3.041000000    -5.303000000
H     4.418000000    -1.819000000    -4.963000000
O     0.506000000     4.430000000    -1.807000000
H    -0.099000000     3.755000000    -2.114000000
H     0.167000000     4.683000000    -0.948000000
O     3.917000000    -3.708000000     4.289000000
H     3.863000000    -3.107000000     3.546000000
H     3.496000000    -3.237000000     5.009000000
O    -2.191000000    -4.517000000     3.580000000
H    -1.848000000    -3.624000000     3.560000000
H    -1.969000000    -4.839000000     4.454000000
O    -3.618000000    -0.186000000    -2.052000000
H    -2.674000000    -0.029000000    -2.092000000
H    -3.938000000     0.052000000    -2.922000000
O     4.260000000     1.550000000     2.877000000
H     4.105000000     2.383000000     2.432000000
H     3.385000000     1.228000000     3.094000000
O     4.898000000    -6.312000000     0.198000000
H     5.776000000    -6.441000000    -0.164000000
H     4.370000000    -6.031000000    -0.550000000
O     4.291000000     1.038000000    -1.622000000
H     4.612000000     0.827000000    -0.746000000
H     4.840000000     1.768000000    -1.910000000
O    -2.038000000     2.455000000    -3.266000000
H    -1.935000000     2.293000000    -4.204000000
H    -2.383000000     3.347000000    -3.213000000
