144
-2801.29661
O    -4.798000000     0.524000000     2.390000000
H    -5.033000000     0.106000000     1.561000000
H    -5.607000000     0.513000000     2.902000000
O    -2.442000000     5.312000000     2.766000000
H    -3.384000000     5.166000000     2.674000000
H    -2.042000000     4.667000000     2.183000000
O     3.430000000    -2.729000000     1.438000000
H     3.376000000    -1.960000000     2.005000000
H     4.037000000    -2.474000000     0.745000000
O     2.262000000     3.807000000     1.806000000
H     2.609000000     2.931000000     1.639000000
H     1.408000000     3.813000000     1.372000000
O    -1.917000000     2.600000000     3.988000000
H    -1.036000000     2.411000000     4.311000000
H    -1.786000000     2.867000000     3.078000000
O     1.766000000    -4.630000000    -4.657000000
H     1.835000000    -5.444000000    -4.159000000
H     1.809000000    -4.905000000    -5.573000000
O    -1.850000000     6.742000000     5.203000000
H    -2.567000000     6.742000000     5.837000000
H    -2.251000000     6.443000000     4.387000000
O    -2.851000000    -7.537000000    -2.419000000
H    -3.120000000    -7.348000000    -1.520000000
H    -2.426000000    -6.732000000    -2.715000000
O    -3.902000000     5.205000000    -0.803000000
H    -4.496000000     5.382000000    -0.073000000
H    -4.174000000     4.347000000    -1.129000000
O    -4.677000000     3.154000000     4.468000000
H    -5.264000000     2.541000000     4.025000000
H    -3.884000000     2.645000000     4.640000000
O    -0.260000000    -2.770000000    -4.991000000
H     0.404000000    -3.453000000    -4.896000000
H     0.086000000    -2.028000000    -4.496000000
O    -3.272000000    -4.227000000     1.048000000
H    -2.491000000    -4.208000000     1.601000000
H    -3.165000000    -3.482000000     0.456000000
O     1.366000000     3.480000000     4.873000000
H     1.378000000     3.798000000     3.970000000
H     1.136000000     2.554000000     4.797000000
O    -4.700000000     3.110000000    -2.352000000
H    -3.962000000     2.520000000    -2.198000000
H    -5.460000000     2.634000000    -2.019000000
O     0.685000000     1.218000000     3.607000000
H     0.799000000     0.382000000     4.059000000
H     1.260000000     1.158000000     2.844000000
O    -1.046000000    -6.048000000    -4.328000000
H    -1.493000000    -5.383000000    -3.803000000
H    -1.712000000    -6.358000000    -4.941000000
O     0.816000000    -6.659000000     2.118000000
H     0.652000000    -7.559000000     1.835000000
H     0.140000000    -6.487000000     2.773000000
O    -2.617000000     7.581000000    -1.143000000
H    -3.207000000     6.840000000    -1.009000000
H    -1.889000000     7.419000000    -0.542000000
O    -1.972000000    -0.588000000     4.168000000
H    -1.634000000    -0.221000000     4.986000000
H    -1.876000000     0.120000000     3.531000000
O     3.524000000     1.247000000     2.553000000
H     3.701000000     0.364000000     2.878000000
H     4.071000000     1.815000000     3.095000000
O    -0.512000000     2.842000000    -3.736000000
H    -0.727000000     3.218000000    -2.882000000
H    -1.047000000     3.336000000    -4.357000000
O    -3.947000000    -2.257000000     4.654000000
H    -3.423000000    -1.459000000     4.592000000
H    -4.350000000    -2.347000000     3.790000000
O    -4.240000000     2.705000000     0.496000000
H    -4.361000000     2.081000000     1.212000000
H    -3.291000000     2.822000000     0.439000000
O     2.067000000     3.640000000    -3.665000000
H     2.133000000     4.032000000    -2.794000000
H     1.275000000     3.104000000    -3.627000000
O     3.238000000    -6.374000000     3.212000000
H     2.447000000    -6.601000000     2.722000000
H     3.088000000    -5.476000000     3.506000000
O    -2.457000000    -4.346000000    -2.632000000
H    -3.402000000    -4.273000000    -2.494000000
H    -2.173000000    -3.451000000    -2.820000000
O    -5.708000000    -0.762000000    -0.019000000
H    -6.662000000    -0.799000000     0.056000000
H    -5.447000000    -1.666000000    -0.198000000
O     3.276000000     6.146000000     2.983000000
H     3.050000000     5.228000000     2.835000000
H     2.468000000     6.625000000     2.800000000
O    -0.787000000    -2.499000000     2.529000000
H    -0.844000000    -1.800000000     3.180000000
H    -0.424000000    -2.073000000     1.752000000
O    -5.379000000     5.922000000     1.936000000
H    -5.760000000     5.091000000     2.219000000
H    -6.072000000     6.342000000     1.426000000
O    -2.379000000     1.108000000    -2.593000000
H    -2.138000000     1.382000000    -3.477000000
H    -1.555000000     0.823000000    -2.197000000
O    -0.795000000     6.249000000     0.685000000
H    -1.459000000     6.406000000     1.356000000
H    -0.266000000     5.532000000     1.034000000
O    -4.116000000    -6.626000000    -0.144000000
H    -4.793000000    -6.881000000     0.483000000
H    -3.858000000    -5.745000000     0.127000000
O    -4.871000000    -2.607000000    -2.243000000
H    -4.950000000    -1.667000000    -2.078000000
H    -4.807000000    -2.678000000    -3.195000000
O     5.186000000     5.979000000    -0.073000000
H     5.285000000     5.604000000     0.802000000
H     4.382000000     5.586000000    -0.413000000
O     1.432000000     8.223000000     1.572000000
H     0.882000000     8.735000000     2.166000000
H     0.810000000     7.756000000     1.013000000
O     4.898000000    -1.676000000    -0.701000000
H     5.299000000    -0.820000000    -0.550000000
H     4.299000000    -1.533000000    -1.434000000
O     0.369000000    -5.999000000    -0.853000000
H    -0.400000000    -5.568000000    -1.224000000
H     0.270000000    -5.893000000     0.093000000
O    -1.305000000    -5.195000000     3.509000000
H    -1.307000000    -4.306000000     3.152000000
H    -0.965000000    -5.095000000     4.398000000
O     1.203000000    -0.202000000    -3.432000000
H     1.983000000    -0.721000000    -3.236000000
H     1.106000000     0.380000000    -2.678000000
O    -0.638000000     6.736000000    -4.138000000
H    -0.139000000     7.444000000    -3.731000000
H    -0.705000000     6.068000000    -3.456000000
O     5.820000000    -4.382000000    -1.172000000
H     5.534000000    -4.771000000    -0.346000000
H     5.319000000    -3.570000000    -1.241000000
O     3.600000000    -1.340000000    -3.031000000
H     3.611000000    -2.025000000    -3.700000000
H     4.052000000    -0.601000000    -3.438000000
O     1.574000000    -6.851000000    -3.260000000
H     1.592000000    -6.815000000    -2.304000000
H     0.651000000    -6.740000000    -3.487000000
O     2.082000000     4.939000000    -1.204000000
H     1.774000000     5.832000000    -1.050000000
H     1.487000000     4.389000000    -0.696000000
O    -5.031000000     0.064000000    -2.412000000
H    -4.268000000     0.611000000    -2.599000000
H    -5.130000000     0.108000000    -1.461000000
O     5.239000000     0.921000000     0.069000000
H     4.502000000     1.285000000     0.559000000
H     5.789000000     1.678000000    -0.134000000
O    -1.153000000     4.709000000    -1.843000000
H    -0.584000000     4.475000000    -1.109000000
H    -1.970000000     4.989000000    -1.432000000
