144
-2822.47864
O    -4.362000000    -3.095000000     0.783000000
H    -5.015000000    -3.665000000     1.189000000
H    -3.750000000    -3.697000000     0.359000000
O     3.903000000    -2.396000000     0.177000000
H     3.109000000    -2.798000000    -0.174000000
H     4.244000000    -1.867000000    -0.544000000
O    -2.716000000    -0.869000000     3.872000000
H    -3.046000000    -1.351000000     4.630000000
H    -2.057000000    -0.276000000     4.234000000
O    -5.007000000     4.504000000     1.839000000
H    -4.520000000     4.677000000     1.033000000
H    -4.337000000     4.478000000     2.522000000
O    -2.868000000     4.783000000     3.572000000
H    -2.924000000     4.992000000     4.505000000
H    -1.934000000     4.843000000     3.369000000
O     0.675000000    -2.602000000     1.496000000
H     1.217000000    -3.262000000     1.062000000
H     0.522000000    -1.939000000     0.824000000
O     4.683000000     2.061000000     2.221000000
H     3.758000000     1.937000000     2.436000000
H     4.991000000     1.188000000     1.978000000
O    -5.110000000     0.026000000     2.443000000
H    -4.273000000    -0.332000000     2.739000000
H    -5.407000000     0.571000000     3.171000000
O    -2.227000000     1.983000000    -3.017000000
H    -1.406000000     2.149000000    -2.553000000
H    -2.895000000     1.994000000    -2.332000000
O    -1.542000000     1.644000000     4.640000000
H    -2.233000000     2.255000000     4.894000000
H    -1.065000000     2.097000000     3.945000000
O    -1.406000000    -3.921000000    -4.752000000
H    -1.073000000    -4.276000000    -5.577000000
H    -2.193000000    -3.436000000    -5.001000000
O    -3.969000000     2.187000000    -0.728000000
H    -4.840000000     2.135000000    -0.336000000
H    -3.686000000     3.087000000    -0.566000000
O    -6.871000000     0.402000000    -2.058000000
H    -6.811000000    -0.040000000    -1.211000000
H    -5.962000000     0.564000000    -2.309000000
O     2.236000000     3.695000000     4.395000000
H     3.160000000     3.549000000     4.194000000
H     1.777000000     2.991000000     3.936000000
O    -0.413000000    -6.665000000    -1.290000000
H    -0.220000000    -6.401000000    -0.390000000
H    -0.092000000    -7.565000000    -1.350000000
O    -2.827000000    -4.704000000    -0.501000000
H    -1.903000000    -4.779000000    -0.265000000
H    -2.922000000    -5.257000000    -1.277000000
O    -3.003000000     4.874000000    -0.374000000
H    -2.182000000     4.384000000    -0.431000000
H    -2.733000000     5.792000000    -0.355000000
O     0.584000000     1.161000000     6.776000000
H    -0.138000000     1.103000000     6.151000000
H     1.248000000     0.564000000     6.431000000
O     0.963000000     5.792000000     5.306000000
H     0.581000000     5.302000000     6.035000000
H     1.652000000     5.220000000     4.969000000
O     4.277000000    -0.848000000     3.861000000
H     4.333000000    -0.987000000     4.806000000
H     3.353000000    -0.657000000     3.701000000
O     1.632000000    -2.222000000    -7.980000000
H     1.566000000    -2.026000000    -7.046000000
H     0.830000000    -2.706000000    -8.180000000
O    -0.776000000     3.359000000    -0.790000000
H    -0.260000000     4.164000000    -0.835000000
H    -0.453000000     2.911000000    -0.009000000
O     4.945000000    -1.582000000    -2.278000000
H     5.766000000    -2.053000000    -2.130000000
H     5.158000000    -0.667000000    -2.095000000
O     3.826000000    -3.327000000     2.740000000
H     4.091000000    -2.543000000     3.221000000
H     3.960000000    -3.101000000     1.820000000
O     7.106000000     2.634000000    -1.473000000
H     6.246000000     2.236000000    -1.608000000
H     6.921000000     3.450000000    -1.008000000
O     1.988000000    -4.150000000    -0.645000000
H     1.505000000    -4.152000000    -1.471000000
H     2.161000000    -5.074000000    -0.467000000
O     1.636000000    -0.697000000     3.666000000
H     1.666000000     0.103000000     3.141000000
H     1.233000000    -1.346000000     3.090000000
O     1.565000000    -1.387000000    -5.093000000
H     1.679000000    -2.330000000    -5.216000000
H     0.877000000    -1.314000000    -4.431000000
O    -6.428000000    -0.930000000     0.391000000
H    -5.970000000    -1.769000000     0.347000000
H    -6.093000000    -0.515000000     1.186000000
O    -5.233000000    -4.083000000    -2.239000000
H    -5.956000000    -4.438000000    -1.721000000
H    -4.538000000    -3.920000000    -1.600000000
O    -4.224000000    -0.047000000    -4.371000000
H    -4.096000000    -0.720000000    -5.039000000
H    -3.348000000     0.304000000    -4.213000000
O    -3.839000000    -2.184000000    -6.273000000
H    -4.519000000    -2.140000000    -6.945000000
H    -3.993000000    -3.019000000    -5.831000000
O     0.706000000    -4.642000000    -2.979000000
H     0.790000000    -5.576000000    -2.783000000
H    -0.123000000    -4.570000000    -3.451000000
O    -0.012000000     5.332000000     2.704000000
H     0.518000000     5.649000000     3.435000000
H     0.095000000     4.381000000     2.724000000
O     4.644000000     1.787000000    -2.412000000
H     4.135000000     1.189000000    -2.959000000
H     4.093000000     2.566000000    -2.333000000
O    -1.318000000    -1.479000000    -7.240000000
H    -0.974000000    -0.980000000    -6.499000000
H    -2.253000000    -1.570000000    -7.055000000
O    -2.531000000    -6.028000000    -2.968000000
H    -1.746000000    -6.369000000    -2.539000000
H    -2.196000000    -5.444000000    -3.649000000
O     4.812000000     4.684000000     2.301000000
H     4.852000000     3.740000000     2.146000000
H     5.681000000     4.910000000     2.634000000
O     6.654000000     0.178000000     0.470000000
H     7.376000000    -0.177000000    -0.049000000
H     6.406000000     0.983000000     0.015000000
O     5.514000000    -1.896000000    -5.316000000
H     6.184000000    -2.569000000    -5.200000000
H     5.209000000    -1.706000000    -4.429000000
O     2.808000000     0.811000000    -3.969000000
H     3.582000000     0.995000000    -4.502000000
H     2.367000000     0.095000000    -4.426000000
O     0.839000000     2.219000000    -3.095000000
H     0.739000000     1.912000000    -2.194000000
H     1.576000000     1.715000000    -3.439000000
O     0.651000000     3.970000000     7.234000000
H     0.001000000     3.740000000     7.897000000
H     0.744000000     3.177000000     6.705000000
O     0.336000000     5.848000000    -0.163000000
H     1.222000000     6.191000000    -0.277000000
H     0.167000000     5.930000000     0.776000000
O    -1.089000000    -3.190000000     3.482000000
H    -0.470000000    -2.946000000     2.793000000
H    -1.782000000    -2.532000000     3.425000000
O     2.357000000    -3.988000000    -5.084000000
H     2.338000000    -4.861000000    -5.476000000
H     1.786000000    -4.056000000    -4.319000000
O     4.433000000     1.901000000     5.291000000
H     4.056000000     1.178000000     5.793000000
H     4.643000000     1.517000000     4.440000000
O    -0.981000000     0.747000000    -5.262000000
H    -1.286000000     1.253000000    -4.509000000
H    -0.242000000     1.249000000    -5.605000000
