144
-2803.26356
O    -5.476000000     2.016000000    -1.522000000
H    -5.110000000     1.860000000    -2.393000000
H    -5.303000000     2.942000000    -1.352000000
O    -2.034000000     1.407000000    -6.062000000
H    -1.299000000     1.192000000    -6.635000000
H    -2.454000000     2.158000000    -6.483000000
O     1.571000000     3.567000000    -3.775000000
H     0.991000000     3.186000000    -3.116000000
H     1.028000000     4.213000000    -4.226000000
O    -0.282000000    -2.727000000     3.533000000
H     0.375000000    -2.031000000     3.519000000
H    -0.784000000    -2.566000000     4.332000000
O    -2.536000000     4.693000000    -3.451000000
H    -2.740000000     4.891000000    -2.537000000
H    -2.783000000     3.775000000    -3.559000000
O     3.560000000    -0.997000000     3.282000000
H     3.493000000    -1.544000000     2.500000000
H     3.517000000    -0.100000000     2.952000000
O     0.001000000     5.277000000     6.163000000
H    -0.377000000     4.793000000     5.429000000
H    -0.470000000     4.955000000     6.931000000
O    -3.819000000     3.298000000     4.674000000
H    -3.696000000     2.528000000     4.118000000
H    -4.761000000     3.465000000     4.646000000
O     2.617000000     4.268000000     0.673000000
H     2.460000000     3.547000000     1.283000000
H     3.187000000     3.893000000     0.002000000
O    -6.229000000     4.222000000    -0.195000000
H    -5.478000000     4.196000000     0.398000000
H    -6.876000000     3.646000000     0.213000000
O    -6.534000000     0.272000000     0.322000000
H    -6.016000000     0.406000000     1.116000000
H    -6.141000000     0.862000000    -0.322000000
O    -1.456000000    -1.412000000    -5.039000000
H    -1.431000000    -0.470000000    -4.869000000
H    -0.709000000    -1.571000000    -5.616000000
O    -0.136000000     3.071000000    -1.853000000
H    -0.710000000     3.794000000    -1.600000000
H    -0.323000000     2.382000000    -1.216000000
O     3.567000000    -4.390000000    -1.618000000
H     2.674000000    -4.155000000    -1.366000000
H     3.862000000    -4.987000000    -0.930000000
O     0.293000000    -0.448000000     6.599000000
H    -0.275000000    -1.204000000     6.448000000
H     0.324000000    -0.358000000     7.552000000
O    -3.732000000    -3.118000000    -1.491000000
H    -4.400000000    -2.982000000    -0.819000000
H    -4.081000000    -3.824000000    -2.035000000
O    -2.312000000    -0.805000000     4.834000000
H    -2.974000000    -1.138000000     4.228000000
H    -1.658000000    -0.393000000     4.270000000
O    -0.930000000    -5.698000000    -3.030000000
H    -0.359000000    -6.313000000    -2.570000000
H    -1.479000000    -5.320000000    -2.343000000
O    -2.072000000    -4.261000000    -5.180000000
H    -1.624000000    -4.580000000    -4.397000000
H    -1.968000000    -3.310000000    -5.146000000
O     3.205000000    -3.442000000    -6.616000000
H     3.324000000    -4.382000000    -6.756000000
H     3.716000000    -3.251000000    -5.830000000
O    -6.774000000     1.988000000     3.485000000
H    -6.105000000     1.556000000     2.954000000
H    -7.603000000     1.639000000     3.157000000
O     4.436000000    -2.714000000    -3.834000000
H     4.298000000    -1.930000000    -3.304000000
H     4.214000000    -3.440000000    -3.250000000
O    -1.604000000    -3.299000000     0.638000000
H    -2.388000000    -2.915000000     0.245000000
H    -1.433000000    -2.758000000     1.409000000
O     0.425000000    -2.247000000    -6.929000000
H     0.377000000    -2.396000000    -7.874000000
H     1.313000000    -2.511000000    -6.690000000
O    -1.298000000     3.920000000     4.203000000
H    -1.110000000     3.051000000     3.849000000
H    -2.208000000     3.868000000     4.496000000
O     5.520000000     2.611000000     0.120000000
H     5.204000000     3.512000000     0.065000000
H     5.854000000     2.420000000    -0.757000000
O     4.678000000     0.207000000     5.570000000
H     4.058000000    -0.187000000     4.956000000
H     5.476000000    -0.313000000     5.472000000
O    -4.096000000     2.001000000    -3.825000000
H    -4.158000000     2.379000000    -4.702000000
H    -3.650000000     1.164000000    -3.956000000
O     4.336000000    -3.079000000     4.630000000
H     3.735000000    -3.646000000     5.113000000
H     3.835000000    -2.279000000     4.470000000
O    -4.828000000     0.608000000     2.337000000
H    -4.626000000    -0.234000000     2.744000000
H    -3.991000000     0.911000000     1.984000000
O     2.232000000     3.620000000     6.392000000
H     2.043000000     2.995000000     5.692000000
H     1.606000000     4.332000000     6.253000000
O     1.190000000    -4.286000000     0.202000000
H     1.205000000    -4.720000000     1.055000000
H     0.440000000    -3.693000000     0.249000000
O     7.307000000    -1.692000000    -2.692000000
H     7.165000000    -1.597000000    -1.750000000
H     6.426000000    -1.726000000    -3.065000000
O    -2.424000000     1.336000000     6.518000000
H    -2.721000000     1.838000000     5.758000000
H    -1.975000000     0.578000000     6.144000000
O    -0.380000000     6.696000000     2.367000000
H     0.477000000     6.776000000     1.949000000
H    -0.400000000     5.800000000     2.703000000
O     0.727000000    -6.777000000    -1.173000000
H     0.936000000    -5.898000000    -0.858000000
H     0.420000000    -7.244000000    -0.396000000
O    -2.649000000     5.048000000    -0.792000000
H    -2.916000000     4.537000000    -0.028000000
H    -2.434000000     5.911000000    -0.440000000
O    -3.922000000    -1.126000000    -3.551000000
H    -3.065000000    -1.385000000    -3.891000000
H    -3.952000000    -1.496000000    -2.669000000
O     3.777000000    -3.081000000     1.531000000
H     4.020000000    -3.916000000     1.932000000
H     2.850000000    -3.180000000     1.314000000
O    -2.383000000     3.444000000     8.352000000
H    -3.109000000     3.103000000     8.874000000
H    -2.477000000     3.014000000     7.502000000
O     1.107000000     1.544000000     5.009000000
H     0.374000000     1.443000000     4.402000000
H     0.976000000     0.853000000     5.659000000
O     4.634000000    -0.509000000    -2.384000000
H     4.469000000    -0.333000000    -1.458000000
H     5.038000000     0.294000000    -2.713000000
O    -3.911000000    -1.902000000     3.001000000
H    -4.337000000    -2.296000000     2.240000000
H    -3.671000000    -2.646000000     3.554000000
O    -3.877000000     3.920000000     1.428000000
H    -3.864000000     4.336000000     2.290000000
H    -3.487000000     3.058000000     1.572000000
O     0.488000000     0.531000000    -7.140000000
H     1.405000000     0.784000000    -7.028000000
H     0.512000000    -0.420000000    -7.239000000
O     6.432000000    -2.180000000    -0.030000000
H     6.212000000    -3.105000000    -0.138000000
H     5.791000000    -1.717000000    -0.570000000
O     3.394000000     2.075000000     2.973000000
H     2.587000000     2.092000000     3.488000000
H     3.966000000     2.710000000     3.404000000
O     4.656000000     0.015000000     0.328000000
H     5.146000000    -0.404000000     1.034000000
H     4.726000000     0.952000000     0.510000000
