144
-2811.19594
O    -2.384000000     2.452000000    -4.141000000
H    -1.658000000     1.892000000    -4.417000000
H    -3.072000000     1.840000000    -3.879000000
O    -0.047000000    -2.190000000    -6.155000000
H     0.605000000    -1.494000000    -6.081000000
H    -0.307000000    -2.177000000    -7.076000000
O    -2.055000000    -3.635000000    -4.646000000
H    -1.529000000    -3.041000000    -5.182000000
H    -2.217000000    -4.389000000    -5.214000000
O    -1.923000000    -3.649000000     0.582000000
H    -1.748000000    -4.583000000     0.691000000
H    -1.195000000    -3.215000000     1.027000000
O    -6.602000000     3.535000000     0.347000000
H    -7.421000000     3.671000000    -0.129000000
H    -6.455000000     2.590000000     0.306000000
O    -1.663000000    -6.346000000     0.317000000
H    -2.567000000    -6.649000000     0.400000000
H    -1.471000000    -6.420000000    -0.618000000
O     5.691000000    -4.098000000     0.672000000
H     4.883000000    -3.822000000     1.104000000
H     5.789000000    -5.019000000     0.912000000
O     1.652000000     1.809000000    -3.075000000
H     2.413000000     1.238000000    -3.181000000
H     1.376000000     1.674000000    -2.168000000
O    -4.999000000     4.325000000     5.201000000
H    -5.286000000     3.479000000     5.545000000
H    -4.050000000     4.324000000     5.323000000
O     1.128000000    -3.349000000     1.813000000
H     1.150000000    -2.394000000     1.755000000
H     2.031000000    -3.598000000     2.011000000
O    -0.133000000     1.177000000    -4.881000000
H     0.278000000     1.321000000    -4.028000000
H     0.435000000     0.542000000    -5.316000000
O     3.484000000     3.821000000    -2.604000000
H     3.903000000     3.632000000    -1.764000000
H     2.770000000     3.186000000    -2.664000000
O    -2.304000000     4.241000000     1.268000000
H    -3.189000000     4.328000000     1.622000000
H    -1.835000000     3.720000000     1.920000000
O    -0.409000000     5.987000000     0.999000000
H    -0.291000000     6.489000000     1.805000000
H    -1.083000000     5.343000000     1.214000000
O    -7.395000000    -0.125000000    -0.486000000
H    -7.056000000     0.256000000    -1.296000000
H    -6.621000000    -0.255000000     0.061000000
O     3.156000000     5.135000000     0.496000000
H     2.291000000     4.952000000     0.129000000
H     3.141000000     4.724000000     1.361000000
O    -4.224000000    -0.021000000    -3.457000000
H    -5.116000000     0.178000000    -3.741000000
H    -4.082000000    -0.927000000    -3.730000000
O    -3.256000000    -3.672000000    -2.000000000
H    -2.780000000    -3.493000000    -2.811000000
H    -2.604000000    -3.559000000    -1.309000000
O    -3.310000000     0.543000000     5.772000000
H    -2.359000000     0.583000000     5.674000000
H    -3.650000000     0.808000000     4.917000000
O    -3.591000000     1.776000000     3.316000000
H    -4.022000000     1.781000000     2.462000000
H    -2.667000000     1.928000000     3.119000000
O    -5.626000000     0.801000000     1.601000000
H    -5.454000000     0.222000000     2.344000000
H    -5.057000000     0.474000000     0.905000000
O     0.584000000    -5.251000000    -4.836000000
H     0.886000000    -5.862000000    -5.509000000
H     0.348000000    -4.460000000    -5.320000000
O    -2.611000000     3.617000000    -1.350000000
H    -2.394000000     3.945000000    -0.477000000
H    -2.458000000     2.673000000    -1.296000000
O     2.948000000     4.712000000     5.156000000
H     2.578000000     5.505000000     5.543000000
H     3.862000000     4.710000000     5.440000000
O    -2.602000000    -1.918000000     3.404000000
H    -2.113000000    -1.495000000     4.110000000
H    -2.041000000    -2.641000000     3.124000000
O     5.401000000     0.007000000    -0.621000000
H     5.638000000     0.757000000    -1.167000000
H     5.797000000     0.195000000     0.230000000
O     0.782000000     2.772000000     5.718000000
H     1.532000000     3.360000000     5.631000000
H     0.711000000     2.345000000     4.864000000
O    -1.633000000    -6.552000000    -2.346000000
H    -2.480000000    -6.151000000    -2.542000000
H    -1.127000000    -6.445000000    -3.151000000
O    -4.786000000     4.170000000     2.460000000
H    -5.467000000     3.586000000     2.126000000
H    -4.709000000     3.942000000     3.387000000
O     0.718000000     4.236000000    -0.486000000
H     0.375000000     4.274000000    -1.378000000
H     0.197000000     4.876000000    -0.001000000
O    -2.241000000     3.757000000     4.958000000
H    -1.651000000     3.492000000     4.252000000
H    -2.105000000     3.101000000     5.642000000
O     3.703000000     0.228000000    -4.388000000
H     4.011000000    -0.504000000    -3.853000000
H     4.495000000     0.726000000    -4.590000000
O     2.637000000     3.639000000     2.711000000
H     2.095000000     2.905000000     3.001000000
H     2.657000000     4.232000000     3.462000000
O     2.091000000    -0.304000000     4.109000000
H     1.761000000     0.524000000     3.759000000
H     3.043000000    -0.213000000     4.082000000
O     4.784000000     0.809000000     4.440000000
H     5.527000000     1.215000000     3.993000000
H     4.722000000     1.274000000     5.274000000
O     1.856000000     0.075000000    -6.519000000
H     2.224000000    -0.709000000    -6.926000000
H     2.507000000     0.333000000    -5.866000000
O     3.933000000    -1.832000000    -2.461000000
H     4.525000000    -1.759000000    -1.713000000
H     3.399000000    -2.603000000    -2.269000000
O    -6.018000000    -2.916000000     1.522000000
H    -5.287000000    -2.536000000     1.035000000
H    -6.373000000    -2.187000000     2.030000000
O    -1.124000000     1.505000000     7.426000000
H    -0.671000000     1.897000000     6.679000000
H    -0.717000000     1.908000000     8.192000000
O     5.352000000     2.943000000     1.161000000
H     4.455000000     3.146000000     1.426000000
H     5.793000000     2.702000000     1.975000000
O     2.426000000    -5.225000000    -2.624000000
H     2.089000000    -6.121000000    -2.606000000
H     1.994000000    -4.822000000    -3.376000000
O    -4.369000000    -2.243000000    -5.025000000
H    -3.732000000    -2.925000000    -5.238000000
H    -5.217000000    -2.632000000    -5.238000000
O    -2.475000000     6.419000000     5.264000000
H    -2.369000000     5.547000000     4.882000000
H    -1.667000000     6.564000000     5.757000000
O    -4.440000000     0.392000000    -0.812000000
H    -4.354000000     0.484000000    -1.761000000
H    -4.043000000    -0.458000000    -0.617000000
O    -3.615000000    -1.462000000     1.031000000
H    -3.197000000    -2.247000000     0.676000000
H    -3.159000000    -1.301000000     1.858000000
O     2.677000000    -1.785000000     6.512000000
H     2.635000000    -1.239000000     5.727000000
H     3.393000000    -2.396000000     6.340000000
O    -5.269000000    -1.023000000     3.754000000
H    -4.335000000    -1.222000000     3.688000000
H    -5.558000000    -1.486000000     4.540000000
O    -0.727000000    -0.304000000     5.111000000
H    -0.012000000    -0.010000000     4.546000000
H    -0.295000000    -0.582000000     5.919000000
