144
-2779.91842
O    -2.918000000    -2.476000000    -5.139000000
H    -3.440000000    -3.114000000    -5.625000000
H    -2.332000000    -3.007000000    -4.599000000
O    -4.353000000    -4.324000000     0.295000000
H    -3.813000000    -4.255000000     1.083000000
H    -4.142000000    -3.538000000    -0.209000000
O    -3.040000000    -6.722000000    -0.748000000
H    -3.535000000    -6.004000000    -0.353000000
H    -3.453000000    -7.514000000    -0.405000000
O    -1.475000000    -4.483000000    -3.466000000
H    -1.918000000    -5.132000000    -2.919000000
H    -1.176000000    -4.976000000    -4.229000000
O     1.776000000    -2.451000000     3.792000000
H     2.657000000    -2.648000000     3.473000000
H     1.628000000    -1.540000000     3.538000000
O    -4.240000000     3.293000000    -2.774000000
H    -3.638000000     3.739000000    -2.178000000
H    -3.689000000     3.010000000    -3.504000000
O    -2.164000000     1.366000000     5.561000000
H    -1.833000000     2.057000000     6.135000000
H    -1.735000000     1.526000000     4.720000000
O     4.023000000     0.809000000     2.447000000
H     4.794000000     1.055000000     2.959000000
H     4.169000000     1.207000000     1.588000000
O     3.136000000    -5.886000000    -0.940000000
H     2.352000000    -5.875000000    -1.489000000
H     3.552000000    -5.039000000    -1.100000000
O     1.782000000     6.048000000    -1.730000000
H     1.825000000     5.172000000    -1.345000000
H     1.577000000     6.623000000    -0.994000000
O     4.189000000    -2.211000000     2.818000000
H     4.930000000    -2.814000000     2.761000000
H     4.589000000    -1.350000000     2.936000000
O     4.450000000     3.274000000    -5.020000000
H     3.862000000     3.717000000    -5.632000000
H     3.943000000     3.202000000    -4.211000000
O    -2.060000000     6.796000000     3.568000000
H    -1.402000000     6.430000000     2.977000000
H    -1.740000000     7.676000000     3.766000000
O     1.346000000     0.063000000     2.666000000
H     2.192000000     0.451000000     2.889000000
H     1.479000000    -0.322000000     1.800000000
O     0.078000000     4.232000000     4.438000000
H    -0.430000000     3.516000000     4.819000000
H    -0.065000000     4.970000000     5.031000000
O    -3.474000000     3.948000000     1.339000000
H    -3.520000000     3.229000000     1.969000000
H    -2.576000000     3.921000000     1.010000000
O     2.174000000     3.648000000     2.379000000
H     1.807000000     3.758000000     1.502000000
H     1.410000000     3.575000000     2.951000000
O    -2.468000000     4.917000000    -1.321000000
H    -1.703000000     4.757000000    -0.768000000
H    -2.941000000     5.621000000    -0.877000000
O     1.103000000    -4.668000000    -2.488000000
H     1.581000000    -3.984000000    -2.956000000
H     0.188000000    -4.532000000    -2.735000000
O    -4.733000000     0.539000000    -1.517000000
H    -5.412000000     1.000000000    -2.010000000
H    -3.954000000     0.600000000    -2.069000000
O     3.138000000     6.732000000    -3.824000000
H     2.541000000     6.610000000    -3.086000000
H     4.005000000     6.543000000    -3.465000000
O    -4.056000000    -2.104000000    -1.309000000
H    -3.407000000    -1.701000000    -1.886000000
H    -4.500000000    -1.364000000    -0.895000000
O    -3.966000000     2.162000000     3.881000000
H    -4.189000000     3.043000000     4.182000000
H    -3.360000000     1.829000000     4.543000000
O     5.789000000    -1.000000000     0.028000000
H     6.050000000    -1.708000000     0.617000000
H     6.387000000    -0.282000000     0.236000000
O     0.093000000    -0.316000000    -3.400000000
H     0.625000000    -0.150000000    -2.622000000
H     0.261000000    -1.235000000    -3.612000000
O    -2.072000000     6.556000000    -3.558000000
H    -1.290000000     7.108000000    -3.540000000
H    -2.004000000     6.020000000    -2.767000000
O    -5.721000000     0.279000000     3.157000000
H    -5.175000000     0.053000000     2.404000000
H    -5.186000000     0.886000000     3.668000000
O     4.206000000     3.532000000    -0.100000000
H     4.910000000     3.541000000     0.548000000
H     3.413000000     3.714000000     0.404000000
O    -0.191000000     5.775000000     2.171000000
H     0.358000000     5.354000000     2.833000000
H    -0.491000000     5.055000000     1.617000000
O     2.302000000    -2.827000000    -4.040000000
H     2.294000000    -2.939000000    -4.990000000
H     3.211000000    -2.986000000    -3.787000000
O     4.708000000    -0.623000000    -2.906000000
H     5.251000000    -1.269000000    -3.358000000
H     4.932000000    -0.726000000    -1.982000000
O     5.197000000    -6.079000000     1.243000000
H     4.296000000    -5.785000000     1.106000000
H     5.121000000    -7.020000000     1.400000000
O    -3.756000000     7.374000000    -0.449000000
H    -2.836000000     7.576000000    -0.282000000
H    -4.019000000     7.997000000    -1.128000000
O    -1.668000000    -6.870000000     4.100000000
H    -1.234000000    -6.414000000     3.379000000
H    -0.976000000    -7.010000000     4.746000000
O     0.379000000    -4.730000000     3.000000000
H     0.953000000    -3.964000000     2.977000000
H     0.965000000    -5.473000000     2.856000000
O    -0.407000000    -2.985000000     5.465000000
H    -0.451000000    -3.484000000     4.650000000
H     0.502000000    -2.687000000     5.513000000
O     0.790000000     1.909000000    -4.793000000
H     0.322000000     1.129000000    -4.496000000
H     1.651000000     1.586000000    -5.059000000
O     3.111000000     2.804000000    -2.552000000
H     2.183000000     2.613000000    -2.415000000
H     3.416000000     3.126000000    -1.704000000
O    -0.659000000     1.730000000     3.292000000
H     0.045000000     1.118000000     3.076000000
H    -1.005000000     2.005000000     2.444000000
O     4.024000000    -3.368000000    -0.341000000
H     4.509000000    -3.222000000     0.471000000
H     4.192000000    -2.585000000    -0.865000000
O    -1.263000000     7.678000000     0.177000000
H    -1.141000000     6.979000000     0.820000000
H    -0.398000000     8.079000000     0.092000000
O     0.259000000    -6.447000000     0.268000000
H    -0.670000000    -6.462000000     0.038000000
H     0.540000000    -5.554000000     0.070000000
O    -5.611000000     5.625000000     0.388000000
H    -4.915000000     5.011000000     0.619000000
H    -5.168000000     6.470000000     0.308000000
O    -2.643000000     0.518000000    -3.217000000
H    -2.306000000     1.208000000    -3.789000000
H    -1.944000000    -0.135000000    -3.192000000
O    -2.082000000     2.901000000    -4.438000000
H    -2.020000000     3.411000000    -5.245000000
H    -1.176000000     2.800000000    -4.148000000
O    -3.354000000    -3.245000000     2.725000000
H    -2.620000000    -2.648000000     2.868000000
H    -3.383000000    -3.783000000     3.516000000
O    -5.839000000     2.529000000     0.527000000
H    -5.161000000     3.107000000     0.878000000
H    -5.463000000     2.183000000    -0.283000000
O    -1.393000000    -1.304000000     3.246000000
H    -1.119000000    -0.581000000     3.811000000
H    -0.601000000    -1.547000000     2.767000000
