144
-2844.66973
O     2.735000000     1.332000000    -4.511000000
H     2.145000000     1.935000000    -4.963000000
H     2.649000000     0.508000000    -4.991000000
O    -2.449000000     5.009000000     6.361000000
H    -2.253000000     4.878000000     5.434000000
H    -1.678000000     5.458000000     6.708000000
O     3.766000000    -2.450000000     4.371000000
H     3.999000000    -2.423000000     3.443000000
H     2.883000000    -2.083000000     4.407000000
O     3.424000000     2.255000000     3.809000000
H     3.730000000     2.340000000     2.906000000
H     2.761000000     2.938000000     3.902000000
O    -4.470000000     2.723000000     4.106000000
H    -4.783000000     2.672000000     3.202000000
H    -3.841000000     3.445000000     4.101000000
O    -5.062000000    -1.378000000     3.092000000
H    -4.600000000    -0.754000000     3.651000000
H    -5.930000000    -1.458000000     3.489000000
O    -0.789000000     1.690000000    -4.791000000
H    -0.218000000     0.925000000    -4.724000000
H    -0.202000000     2.407000000    -5.034000000
O     1.778000000    -5.127000000     1.665000000
H     2.408000000    -4.592000000     1.182000000
H     1.361000000    -4.516000000     2.273000000
O    -0.246000000     2.311000000     8.650000000
H    -0.668000000     1.454000000     8.720000000
H     0.126000000     2.322000000     7.768000000
O     1.935000000    -0.951000000    -5.385000000
H     1.581000000    -0.541000000    -6.175000000
H     1.904000000    -1.890000000    -5.568000000
O    -2.330000000     4.074000000     0.320000000
H    -2.676000000     3.245000000    -0.011000000
H    -1.595000000     3.821000000     0.879000000
O     3.488000000    -6.554000000    -1.344000000
H     4.180000000    -6.833000000    -1.944000000
H     2.977000000    -5.919000000    -1.847000000
O     1.311000000     4.227000000     1.814000000
H     1.221000000     5.052000000     2.292000000
H     0.547000000     3.714000000     2.077000000
O     1.242000000     3.639000000    -5.361000000
H     1.826000000     4.070000000    -4.737000000
H     1.268000000     4.199000000    -6.138000000
O     2.054000000     0.295000000     5.182000000
H     2.388000000     0.524000000     6.049000000
H     2.406000000     0.972000000     4.604000000
O    -5.102000000     2.665000000     1.576000000
H    -4.581000000     2.272000000     0.876000000
H    -5.438000000     3.477000000     1.197000000
O    -4.835000000    -0.261000000     0.903000000
H    -4.856000000    -0.627000000     1.787000000
H    -4.746000000    -1.023000000     0.330000000
O    -2.482000000    -4.592000000    -1.699000000
H    -2.794000000    -5.407000000    -1.306000000
H    -1.649000000    -4.417000000    -1.261000000
O    -2.803000000     3.554000000    -2.823000000
H    -2.743000000     2.906000000    -3.525000000
H    -1.896000000     3.698000000    -2.552000000
O    -0.308000000    -0.820000000     4.977000000
H    -0.562000000    -0.108000000     4.390000000
H     0.601000000    -0.628000000     5.208000000
O    -3.405000000     0.938000000     7.368000000
H    -2.988000000     0.734000000     6.530000000
H    -3.412000000     1.894000000     7.405000000
O    -2.442000000    -5.637000000     3.098000000
H    -2.303000000    -6.067000000     2.254000000
H    -2.788000000    -4.774000000     2.872000000
O    -4.745000000    -2.703000000    -0.791000000
H    -5.572000000    -2.739000000    -1.272000000
H    -4.074000000    -2.853000000    -1.458000000
O     0.976000000    -3.313000000     3.559000000
H     0.320000000    -3.438000000     4.246000000
H     0.741000000    -2.479000000     3.153000000
O     3.919000000    -3.599000000    -3.901000000
H     3.862000000    -2.775000000    -3.418000000
H     4.832000000    -3.870000000    -3.806000000
O     3.735000000    -1.170000000    -2.971000000
H     2.782000000    -1.155000000    -3.062000000
H     4.053000000    -0.619000000    -3.686000000
O     4.473000000    -4.159000000    -0.335000000
H     4.235000000    -5.047000000    -0.603000000
H     5.351000000    -4.028000000    -0.693000000
O    -3.123000000     0.439000000     4.628000000
H    -3.637000000     1.231000000     4.474000000
H    -2.304000000     0.590000000     4.156000000
O     3.365000000     2.077000000     0.892000000
H     3.442000000     1.447000000     0.176000000
H     2.433000000     2.293000000     0.922000000
O    -0.379000000     2.662000000     5.736000000
H    -0.344000000     2.121000000     4.948000000
H    -1.301000000     2.905000000     5.819000000
O     2.038000000     4.456000000    -0.786000000
H     1.743000000     4.261000000     0.104000000
H     2.342000000     5.362000000    -0.744000000
O     1.840000000    -3.528000000    -6.013000000
H     1.905000000    -4.033000000    -6.824000000
H     2.678000000    -3.671000000    -5.574000000
O     1.918000000     4.365000000     5.279000000
H     1.154000000     3.802000000     5.410000000
H     2.403000000     4.304000000     6.102000000
O    -2.820000000    -2.539000000    -3.540000000
H    -2.445000000    -2.691000000    -4.408000000
H    -2.582000000    -3.318000000    -3.037000000
O    -2.498000000     4.664000000     3.550000000
H    -1.793000000     4.119000000     3.199000000
H    -2.659000000     5.315000000     2.868000000
O    -0.361000000     4.545000000    -2.423000000
H     0.537000000     4.433000000    -2.734000000
H    -0.266000000     4.908000000    -1.542000000
O    -2.506000000    -2.419000000     5.722000000
H    -3.288000000    -1.992000000     5.373000000
H    -1.779000000    -2.003000000     5.260000000
O     1.642000000    -5.409000000    -2.991000000
H     1.117000000    -5.728000000    -3.726000000
H     2.041000000    -4.602000000    -3.314000000
O    -1.155000000    -3.411000000    -5.891000000
H    -1.595000000    -4.205000000    -6.196000000
H    -0.230000000    -3.652000000    -5.847000000
O     3.503000000    -0.286000000    -0.531000000
H     4.005000000    -0.639000000    -1.266000000
H     3.042000000    -1.043000000    -0.170000000
O    -3.049000000    -0.159000000    -2.357000000
H    -3.001000000    -0.836000000    -3.032000000
H    -2.229000000    -0.247000000    -1.871000000
O     0.003000000    -4.741000000    -0.842000000
H     0.596000000    -4.907000000    -1.575000000
H     0.327000000    -5.305000000    -0.140000000
O    -2.087000000     6.786000000     0.376000000
H    -1.350000000     6.827000000     0.985000000
H    -2.273000000     5.851000000     0.287000000
O    -3.067000000    -3.183000000     2.060000000
H    -3.996000000    -3.015000000     1.902000000
H    -2.651000000    -3.044000000     1.209000000
O    -3.325000000     1.780000000    -0.466000000
H    -3.717000000     0.963000000    -0.157000000
H    -3.194000000     1.643000000    -1.404000000
O    -0.371000000     7.195000000     2.601000000
H    -0.699000000     8.086000000     2.476000000
H    -0.380000000     7.067000000     3.549000000
O     3.723000000     2.402000000    -2.239000000
H     3.225000000     2.004000000    -2.953000000
H     3.114000000     3.021000000    -1.837000000
O     4.211000000    -2.166000000     1.584000000
H     4.318000000    -2.909000000     0.990000000
H     4.826000000    -1.509000000     1.259000000
