144
-2816.52597
O     4.470000000     0.242000000    -2.416000000
H     4.426000000    -0.675000000    -2.688000000
H     3.556000000     0.500000000    -2.298000000
O     2.181000000     1.532000000    -1.464000000
H     1.488000000     0.916000000    -1.224000000
H     1.726000000     2.234000000    -1.928000000
O    -2.549000000    -1.505000000     1.118000000
H    -1.702000000    -1.081000000     0.986000000
H    -2.404000000    -2.109000000     1.847000000
O    -7.008000000     4.336000000     0.318000000
H    -6.385000000     3.754000000    -0.118000000
H    -6.785000000     5.210000000    -0.004000000
O     6.870000000    -0.064000000     2.288000000
H     6.300000000    -0.619000000     1.755000000
H     6.290000000     0.618000000     2.627000000
O     2.016000000    -6.340000000    -5.032000000
H     1.633000000    -6.090000000    -5.873000000
H     1.453000000    -5.926000000    -4.379000000
O     2.737000000     0.796000000     4.678000000
H     3.371000000     0.411000000     5.283000000
H     2.710000000     0.187000000     3.940000000
O     3.840000000    -3.938000000     0.318000000
H     4.496000000    -3.288000000     0.067000000
H     3.758000000    -4.504000000    -0.449000000
O     1.464000000     7.568000000     0.869000000
H     2.414000000     7.455000000     0.839000000
H     1.146000000     6.800000000     1.344000000
O    -2.080000000     4.375000000    -1.267000000
H    -2.864000000     4.892000000    -1.085000000
H    -1.930000000     3.876000000    -0.464000000
O     2.076000000     3.300000000     4.071000000
H     1.590000000     3.300000000     3.247000000
H     2.266000000     2.376000000     4.237000000
O     1.124000000     4.971000000     1.756000000
H     0.489000000     4.256000000     1.799000000
H     1.707000000     4.730000000     1.036000000
O    -1.045000000    -0.622000000    -4.646000000
H    -0.315000000    -1.120000000    -5.013000000
H    -1.636000000    -1.288000000    -4.295000000
O    -0.339000000    -6.164000000     1.519000000
H    -0.257000000    -5.986000000     0.582000000
H    -0.712000000    -7.045000000     1.563000000
O     5.256000000     1.976000000     3.188000000
H     5.406000000     2.735000000     3.752000000
H     4.329000000     2.029000000     2.957000000
O    -3.593000000     3.901000000     3.131000000
H    -2.892000000     4.191000000     3.715000000
H    -3.175000000     3.826000000     2.274000000
O     0.119000000    -6.251000000    -1.351000000
H    -0.472000000    -6.900000000    -1.733000000
H     0.095000000    -5.516000000    -1.964000000
O    -3.441000000     1.689000000     5.817000000
H    -3.062000000     1.198000000     6.546000000
H    -2.960000000     1.384000000     5.048000000
O    -4.510000000    -0.138000000    -3.256000000
H    -4.013000000     0.476000000    -3.796000000
H    -4.066000000    -0.977000000    -3.377000000
O    -3.437000000     4.677000000    -4.104000000
H    -2.891000000     4.180000000    -3.494000000
H    -2.961000000     4.644000000    -4.934000000
O    -1.014000000    -0.325000000     3.733000000
H    -0.694000000     0.255000000     4.424000000
H    -0.318000000    -0.973000000     3.623000000
O    -3.553000000     0.085000000     3.188000000
H    -3.590000000    -0.390000000     2.357000000
H    -2.631000000     0.050000000     3.442000000
O    -0.944000000     2.158000000    -4.157000000
H    -0.967000000     1.221000000    -4.348000000
H    -1.484000000     2.556000000    -4.840000000
O    -6.171000000     3.043000000     2.917000000
H    -5.288000000     3.337000000     3.142000000
H    -6.095000000     2.724000000     2.018000000
O     0.605000000     3.650000000    -2.462000000
H     0.047000000     3.199000000    -3.096000000
H    -0.007000000     4.121000000    -1.897000000
O    -2.732000000    -2.397000000    -3.536000000
H    -3.148000000    -2.738000000    -4.328000000
H    -3.164000000    -2.861000000    -2.819000000
O     5.098000000    -2.248000000    -2.536000000
H     6.039000000    -2.115000000    -2.424000000
H     5.023000000    -3.128000000    -2.903000000
O    -3.871000000     6.710000000    -0.623000000
H    -3.260000000     6.389000000     0.041000000
H    -3.405000000     7.430000000    -1.049000000
O    -1.135000000     3.892000000     4.734000000
H    -0.841000000     3.081000000     5.147000000
H    -1.116000000     3.704000000     3.796000000
O    -0.323000000    -4.721000000    -3.329000000
H    -0.913000000    -5.053000000    -4.006000000
H    -0.462000000    -3.774000000    -3.334000000
O     3.810000000    -1.538000000     3.619000000
H     4.284000000    -2.146000000     4.186000000
H     3.608000000    -2.048000000     2.835000000
O    -5.087000000     6.072000000     2.794000000
H    -5.320000000     6.074000000     1.866000000
H    -4.667000000     5.223000000     2.934000000
O     3.259000000     5.874000000     3.723000000
H     3.391000000     5.259000000     4.445000000
H     2.635000000     5.435000000     3.145000000
O     4.534000000    -4.882000000    -4.031000000
H     3.903000000    -4.475000000    -4.625000000
H     5.280000000    -5.101000000    -4.588000000
O     1.488000000     0.705000000    -5.213000000
H     0.863000000     1.335000000    -5.572000000
H     2.305000000     1.197000000    -5.133000000
O    -1.110000000     7.900000000    -0.413000000
H    -1.258000000     7.109000000     0.105000000
H    -0.164000000     7.918000000    -0.558000000
O     3.210000000    -5.395000000    -1.790000000
H     3.667000000    -5.229000000    -2.615000000
H     2.401000000    -5.836000000    -2.048000000
O    -0.158000000     6.880000000     3.985000000
H    -1.031000000     6.967000000     4.366000000
H     0.084000000     5.968000000     4.147000000
O     0.040000000     1.411000000     5.727000000
H     0.378000000     1.072000000     6.556000000
H     0.822000000     1.608000000     5.212000000
O     1.550000000    -3.717000000     1.940000000
H     2.109000000    -3.467000000     1.205000000
H     1.231000000    -4.591000000     1.713000000
O    -3.767000000    -2.622000000    -1.038000000
H    -3.922000000    -3.358000000    -0.447000000
H    -3.049000000    -2.136000000    -0.633000000
O    -1.472000000     5.916000000     1.375000000
H    -1.675000000     5.009000000     1.604000000
H    -0.990000000     6.252000000     2.131000000
O    -2.071000000    -4.089000000     2.297000000
H    -2.879000000    -4.444000000     1.928000000
H    -1.381000000    -4.655000000     1.953000000
O     1.312000000    -1.937000000    -5.355000000
H     2.225000000    -2.177000000    -5.514000000
H     1.296000000    -0.984000000    -5.441000000
O    -4.725000000     2.650000000     0.113000000
H    -3.811000000     2.674000000     0.395000000
H    -4.994000000     1.742000000     0.250000000
O    -5.254000000    -0.077000000    -0.421000000
H    -4.889000000    -0.961000000    -0.393000000
H    -5.291000000     0.137000000    -1.354000000
O     0.467000000    -2.350000000     4.109000000
H     0.480000000    -2.772000000     4.967000000
H     0.901000000    -2.975000000     3.528000000
O     3.210000000     2.004000000     1.452000000
H     3.062000000     1.491000000     0.658000000
H     3.691000000     2.776000000     1.152000000
