144
-2802.70546
O     3.954000000     1.009000000    -3.187000000
H     4.096000000     1.539000000    -3.971000000
H     3.912000000     0.109000000    -3.512000000
O    -0.924000000    -5.225000000     2.853000000
H    -0.630000000    -4.387000000     3.209000000
H    -0.577000000    -5.879000000     3.460000000
O    -3.664000000     3.988000000     5.682000000
H    -4.404000000     4.130000000     5.092000000
H    -2.965000000     3.663000000     5.116000000
O    -0.989000000     1.047000000    -3.563000000
H    -0.803000000     1.433000000    -2.707000000
H    -1.931000000     0.877000000    -3.550000000
O    -0.999000000     5.896000000    -2.415000000
H    -1.449000000     5.210000000    -2.909000000
H    -0.699000000     5.459000000    -1.618000000
O     0.787000000     1.089000000    -5.794000000
H     0.343000000     0.712000000    -5.034000000
H     1.165000000     1.906000000    -5.469000000
O     0.368000000    -6.010000000     0.351000000
H     0.106000000    -5.493000000     1.112000000
H     1.115000000    -6.525000000     0.657000000
O    -1.487000000     5.035000000     6.972000000
H    -0.839000000     4.351000000     6.804000000
H    -2.287000000     4.557000000     7.193000000
O     3.506000000    -1.300000000    -4.790000000
H     3.360000000    -0.817000000    -5.603000000
H     3.205000000    -2.189000000    -4.982000000
O    -0.613000000     4.193000000    -0.106000000
H    -1.568000000     4.152000000    -0.047000000
H    -0.306000000     3.782000000     0.703000000
O     1.759000000     4.811000000     2.602000000
H     2.370000000     4.436000000     3.235000000
H     1.042000000     4.179000000     2.556000000
O     1.883000000     0.273000000     5.617000000
H     1.801000000     0.423000000     6.559000000
H     2.632000000     0.809000000     5.354000000
O     2.050000000     4.128000000    -4.305000000
H     2.192000000     3.923000000    -3.380000000
H     1.715000000     5.025000000    -4.303000000
O    -2.873000000     0.858000000    -6.304000000
H    -2.686000000     0.066000000    -5.801000000
H    -2.163000000     0.909000000    -6.945000000
O    -4.267000000    -1.894000000     3.526000000
H    -3.851000000    -1.072000000     3.787000000
H    -4.092000000    -1.962000000     2.587000000
O    -3.487000000    -2.591000000    -2.117000000
H    -3.534000000    -2.591000000    -3.073000000
H    -2.704000000    -3.104000000    -1.916000000
O    -3.462000000     4.115000000    -0.228000000
H    -4.374000000     4.407000000    -0.207000000
H    -3.516000000     3.171000000    -0.373000000
O    -0.771000000    -0.407000000     4.813000000
H    -0.923000000     0.331000000     4.223000000
H     0.007000000    -0.159000000     5.312000000
O    -2.471000000     2.328000000     7.869000000
H    -1.649000000     2.169000000     7.406000000
H    -3.139000000     1.914000000     7.322000000
O    -3.448000000    -5.598000000     2.561000000
H    -2.552000000    -5.276000000     2.652000000
H    -3.839000000    -5.468000000     3.425000000
O    -4.062000000    -2.670000000     0.922000000
H    -3.888000000    -2.445000000     0.008000000
H    -3.934000000    -3.618000000     0.963000000
O     0.051000000    -2.906000000     3.878000000
H    -0.405000000    -2.095000000     4.103000000
H     0.848000000    -2.887000000     4.407000000
O     3.830000000    -3.238000000    -1.722000000
H     3.456000000    -2.423000000    -1.387000000
H     3.075000000    -3.736000000    -2.036000000
O     3.505000000    -0.942000000    -0.124000000
H     3.241000000    -0.699000000     0.764000000
H     4.236000000    -0.358000000    -0.325000000
O     3.553000000    -4.057000000     1.478000000
H     3.021000000    -3.741000000     0.749000000
H     3.732000000    -3.276000000     2.001000000
O    -3.671000000     0.899000000     3.727000000
H    -4.268000000     1.387000000     3.160000000
H    -2.797000000     1.166000000     3.442000000
O     4.594000000     1.937000000     1.673000000
H     5.045000000     1.742000000     0.851000000
H     3.786000000     2.374000000     1.405000000
O    -0.225000000     2.737000000     5.682000000
H     0.630000000     2.653000000     5.259000000
H    -0.846000000     2.399000000     5.037000000
O     5.529000000     4.736000000    -0.084000000
H     5.060000000     5.358000000     0.472000000
H     4.925000000     4.557000000    -0.805000000
O     2.865000000    -4.259000000    -5.482000000
H     2.557000000    -4.428000000    -6.372000000
H     3.796000000    -4.062000000    -5.583000000
O    -2.107000000     3.538000000    -3.639000000
H    -2.983000000     3.160000000    -3.719000000
H    -1.525000000     2.872000000    -4.006000000
O    -2.817000000    -1.473000000    -4.951000000
H    -3.482000000    -2.041000000    -5.342000000
H    -1.990000000    -1.928000000    -5.110000000
O    -3.606000000     0.657000000    -3.386000000
H    -4.510000000     0.821000000    -3.653000000
H    -3.365000000    -0.151000000    -3.839000000
O    -1.985000000     4.737000000     3.771000000
H    -1.732000000     4.332000000     2.941000000
H    -1.159000000     5.033000000     4.154000000
O     2.336000000     4.597000000    -1.245000000
H     2.308000000     5.553000000    -1.258000000
H     1.603000000     4.343000000    -0.684000000
O    -2.423000000    -1.024000000     6.881000000
H    -1.753000000    -1.068000000     6.198000000
H    -3.084000000    -0.429000000     6.529000000
O     0.492000000    -5.473000000    -3.653000000
H    -0.295000000    -5.714000000    -4.142000000
H     0.969000000    -4.887000000    -4.240000000
O    -0.207000000    -2.363000000    -5.450000000
H    -0.220000000    -3.284000000    -5.710000000
H     0.718000000    -2.170000000    -5.296000000
O     1.638000000    -0.864000000     2.266000000
H     1.033000000    -1.412000000     2.765000000
H     1.156000000    -0.638000000     1.470000000
O     3.969000000     6.450000000     1.819000000
H     3.191000000     5.899000000     1.901000000
H     3.654000000     7.248000000     1.394000000
O    -3.399000000     1.522000000    -0.916000000
H    -3.117000000     1.286000000    -1.799000000
H    -3.562000000     0.683000000    -0.484000000
O    -1.542000000    -4.634000000    -1.599000000
H    -1.214000000    -5.104000000    -2.365000000
H    -0.902000000    -4.820000000    -0.911000000
O    -2.419000000    -6.101000000    -4.566000000
H    -3.153000000    -6.641000000    -4.858000000
H    -2.827000000    -5.386000000    -4.078000000
O    -5.446000000     1.866000000     1.983000000
H    -5.490000000     2.163000000     1.074000000
H    -6.262000000     1.386000000     2.119000000
O     5.488000000     1.173000000    -0.993000000
H     5.027000000     1.320000000    -1.819000000
H     6.407000000     1.082000000    -1.245000000
O    -4.603000000     0.575000000     6.302000000
H    -5.400000000     1.070000000     6.492000000
H    -4.314000000     0.903000000     5.451000000
O     0.473000000     7.711000000     2.899000000
H     0.168000000     7.508000000     3.783000000
H     0.509000000     6.863000000     2.457000000
O     6.534000000    -1.734000000    -1.849000000
H     5.779000000    -1.787000000    -2.435000000
H     7.060000000    -1.016000000    -2.200000000
