144
-2838.29996
O     3.679000000     1.765000000    -4.461000000
H     2.978000000     1.398000000    -4.999000000
H     4.183000000     2.311000000    -5.065000000
O     0.609000000    -4.446000000     5.485000000
H    -0.146000000    -4.229000000     4.938000000
H     0.666000000    -3.725000000     6.112000000
O    -2.703000000     7.651000000    -1.620000000
H    -2.728000000     6.696000000    -1.675000000
H    -3.448000000     7.878000000    -1.063000000
O     2.510000000     1.787000000     2.540000000
H     1.765000000     2.341000000     2.308000000
H     3.090000000     2.362000000     3.040000000
O    -1.783000000    -4.421000000     4.048000000
H    -2.350000000    -4.116000000     3.339000000
H    -2.311000000    -4.313000000     4.839000000
O    -1.200000000     0.644000000     6.669000000
H    -1.555000000     0.671000000     7.557000000
H    -1.826000000     1.144000000     6.145000000
O    -2.444000000     0.430000000    -2.264000000
H    -3.049000000    -0.179000000    -1.840000000
H    -1.600000000     0.259000000    -1.846000000
O    -0.533000000     2.667000000    -4.431000000
H    -0.015000000     2.563000000    -5.229000000
H    -1.415000000     2.869000000    -4.742000000
O     0.909000000    -5.122000000     2.401000000
H     0.941000000    -5.979000000     2.826000000
H     0.904000000    -4.495000000     3.124000000
O    -0.449000000    -0.673000000    -4.389000000
H    -1.011000000    -0.544000000    -5.153000000
H    -0.708000000     0.020000000    -3.782000000
O    -0.772000000     4.919000000    -2.041000000
H    -1.254000000     4.232000000    -2.501000000
H    -0.586000000     4.546000000    -1.180000000
O     2.658000000     4.222000000     0.267000000
H     2.980000000     3.861000000    -0.559000000
H     1.798000000     3.819000000     0.385000000
O     2.566000000    -0.316000000     4.562000000
H     3.471000000    -0.602000000     4.691000000
H     2.482000000    -0.207000000     3.615000000
O    -0.544000000    -5.665000000    -2.085000000
H     0.405000000    -5.789000000    -2.085000000
H    -0.753000000    -5.412000000    -2.984000000
O    -2.412000000    -2.724000000    -4.447000000
H    -1.617000000    -3.233000000    -4.605000000
H    -2.854000000    -2.701000000    -5.296000000
O    -4.419000000     5.578000000     0.424000000
H    -3.715000000     5.874000000     1.001000000
H    -4.819000000     6.386000000     0.102000000
O    -3.244000000    -1.927000000    -1.821000000
H    -3.369000000    -2.855000000    -1.621000000
H    -2.824000000    -1.922000000    -2.681000000
O    -5.519000000     3.013000000    -0.647000000
H    -5.144000000     3.730000000    -0.135000000
H    -6.220000000     3.422000000    -1.154000000
O    -6.138000000     4.333000000     2.563000000
H    -6.852000000     4.641000000     2.006000000
H    -5.347000000     4.479000000     2.043000000
O    -2.160000000     1.589000000     4.259000000
H    -1.876000000     1.867000000     3.388000000
H    -2.695000000     2.315000000     4.579000000
O    -2.198000000    -1.174000000     4.119000000
H    -1.869000000    -1.445000000     3.262000000
H    -2.055000000    -0.228000000     4.142000000
O    -3.689000000    -1.134000000     0.818000000
H    -3.077000000    -1.435000000     0.147000000
H    -3.501000000    -0.200000000     0.912000000
O     1.552000000     4.655000000    -5.892000000
H     1.445000000     4.345000000    -4.993000000
H     2.462000000     4.947000000    -5.938000000
O     0.661000000    -1.521000000     6.303000000
H     0.109000000    -0.739000000     6.294000000
H     1.442000000    -1.268000000     5.811000000
O     5.374000000    -1.588000000     1.373000000
H     6.046000000    -1.489000000     2.048000000
H     4.958000000    -2.427000000     1.571000000
O     2.973000000    -5.550000000     0.616000000
H     3.583000000    -4.951000000     1.046000000
H     2.184000000    -5.517000000     1.156000000
O     3.651000000     2.527000000    -1.933000000
H     3.612000000     2.172000000    -2.821000000
H     3.815000000     1.765000000    -1.378000000
O    -0.613000000     4.774000000     3.667000000
H    -0.724000000     4.370000000     4.528000000
H    -0.508000000     4.035000000     3.068000000
O     1.857000000     7.351000000     1.391000000
H     1.569000000     6.918000000     0.587000000
H     1.060000000     7.735000000     1.756000000
O    -1.463000000    -5.021000000     0.483000000
H    -0.574000000    -4.668000000     0.525000000
H    -1.575000000    -5.281000000    -0.431000000
O     1.870000000    -2.100000000    -5.358000000
H     1.041000000    -1.734000000    -5.051000000
H     2.533000000    -1.477000000    -5.060000000
O    -3.171000000     3.012000000    -2.423000000
H    -4.040000000     2.726000000    -2.141000000
H    -2.753000000     2.217000000    -2.754000000
O    -1.832000000     6.159000000     1.666000000
H    -1.413000000     5.531000000     1.077000000
H    -1.542000000     5.897000000     2.540000000
O     2.274000000     4.665000000    -3.190000000
H     2.587000000     3.779000000    -3.009000000
H     1.337000000     4.632000000    -2.998000000
O    -3.780000000     3.495000000     5.146000000
H    -4.220000000     4.341000000     5.062000000
H    -4.293000000     2.903000000     4.595000000
O     4.673000000    -3.006000000    -1.422000000
H     4.060000000    -2.713000000    -2.095000000
H     4.474000000    -2.460000000    -0.662000000
O     4.855000000     3.782000000     2.040000000
H     4.106000000     3.953000000     1.469000000
H     5.581000000     3.612000000     1.439000000
O     3.798000000     6.420000000    -1.367000000
H     3.061000000     6.175000000    -1.926000000
H     3.729000000     5.838000000    -0.610000000
O     0.394000000     7.247000000    -1.254000000
H     0.044000000     6.373000000    -1.427000000
H    -0.324000000     7.841000000    -1.476000000
O    -4.275000000    -4.519000000    -1.538000000
H    -4.069000000    -5.442000000    -1.393000000
H    -5.232000000    -4.482000000    -1.524000000
O     3.916000000     0.864000000     0.350000000
H     3.470000000     1.377000000     1.024000000
H     4.070000000     0.012000000     0.758000000
O     0.942000000     2.053000000     5.515000000
H     1.526000000     1.527000000     4.970000000
H     0.304000000     1.427000000     5.857000000
O     2.058000000    -5.869000000    -1.888000000
H     2.467000000    -5.222000000    -2.463000000
H     2.507000000    -5.762000000    -1.049000000
O     2.863000000    -3.941000000    -3.527000000
H     2.138000000    -3.608000000    -4.057000000
H     3.546000000    -4.154000000    -4.162000000
O    -3.708000000     2.034000000     1.434000000
H    -3.976000000     2.388000000     0.586000000
H    -2.853000000     2.430000000     1.600000000
O    -5.325000000     1.794000000     3.884000000
H    -6.072000000     2.177000000     3.424000000
H    -4.755000000     1.471000000     3.187000000
O    -3.813000000    -3.545000000     2.314000000
H    -3.792000000    -4.279000000     1.701000000
H    -3.658000000    -2.773000000     1.769000000
O    -0.240000000    -4.491000000    -4.846000000
H    -0.790000000    -5.094000000    -5.346000000
H     0.628000000    -4.896000000    -4.855000000
