144
-2824.53102
O     0.129000000     1.058000000    -4.395000000
H    -0.434000000     1.379000000    -5.099000000
H     0.801000000     1.733000000    -4.298000000
O    -1.201000000    -3.646000000     3.423000000
H    -2.037000000    -3.739000000     2.966000000
H    -1.182000000    -2.731000000     3.704000000
O     1.489000000    -4.727000000    -4.881000000
H     2.118000000    -4.268000000    -4.324000000
H     0.835000000    -4.064000000    -5.100000000
O    -1.923000000     1.718000000     6.260000000
H    -2.388000000     2.146000000     5.541000000
H    -2.428000000     0.923000000     6.431000000
O    -2.437000000     7.983000000    -2.306000000
H    -2.011000000     7.920000000    -3.161000000
H    -2.425000000     7.089000000    -1.966000000
O     3.033000000     1.774000000     1.240000000
H     2.396000000     1.183000000     0.837000000
H     2.535000000     2.569000000     1.429000000
O    -1.043000000     7.118000000     4.468000000
H    -1.918000000     6.830000000     4.726000000
H    -0.811000000     6.550000000     3.733000000
O    -4.395000000    -3.109000000     4.948000000
H    -3.960000000    -2.265000000     5.072000000
H    -4.183000000    -3.359000000     4.049000000
O    -3.637000000    -3.852000000     2.310000000
H    -4.097000000    -4.682000000     2.179000000
H    -3.399000000    -3.568000000     1.428000000
O     2.122000000    -2.286000000     2.925000000
H     1.435000000    -2.897000000     3.192000000
H     2.080000000    -1.581000000     3.570000000
O    -0.662000000     4.133000000    -3.770000000
H     0.156000000     4.621000000    -3.678000000
H    -1.030000000     4.438000000    -4.600000000
O     0.440000000    -5.422000000     1.907000000
H     0.836000000    -6.075000000     2.484000000
H    -0.233000000    -5.004000000     2.444000000
O    -1.021000000    -1.373000000    -3.728000000
H    -1.367000000    -1.552000000    -2.854000000
H    -0.433000000    -0.628000000    -3.606000000
O    -1.492000000     5.523000000    -1.247000000
H    -1.204000000     5.028000000    -2.014000000
H    -1.295000000     4.951000000    -0.505000000
O     1.804000000     4.312000000     1.131000000
H     1.799000000     5.165000000     1.566000000
H     0.880000000     4.072000000     1.065000000
O     2.299000000     3.004000000    -4.102000000
H     2.120000000     3.770000000    -4.647000000
H     2.557000000     3.367000000    -3.255000000
O     3.028000000     0.195000000     3.532000000
H     3.886000000    -0.229000000     3.537000000
H     2.950000000     0.566000000     2.653000000
O     0.969000000    -6.597000000    -2.792000000
H     1.432000000    -6.424000000    -1.972000000
H     1.210000000    -5.866000000    -3.362000000
O    -3.927000000    -2.360000000    -4.038000000
H    -4.431000000    -2.413000000    -3.226000000
H    -3.110000000    -1.929000000    -3.786000000
O    -5.150000000     6.279000000    -0.102000000
H    -4.482000000     6.311000000     0.583000000
H    -4.843000000     6.898000000    -0.764000000
O    -2.632000000    -1.663000000    -1.521000000
H    -2.923000000    -2.557000000    -1.342000000
H    -2.570000000    -1.254000000    -0.658000000
O    -6.226000000     3.804000000    -0.838000000
H    -5.618000000     4.522000000    -0.662000000
H    -6.839000000     4.162000000    -1.480000000
O     5.052000000    -2.913000000    -1.216000000
H     4.626000000    -2.205000000    -0.734000000
H     5.640000000    -3.318000000    -0.578000000
O    -3.268000000     2.484000000     3.751000000
H    -2.941000000     2.757000000     2.894000000
H    -4.054000000     3.012000000     3.887000000
O    -4.209000000    -0.268000000     3.762000000
H    -4.592000000    -0.091000000     2.903000000
H    -3.444000000     0.305000000     3.806000000
O    -5.117000000    -1.171000000     0.668000000
H    -5.266000000    -1.539000000    -0.203000000
H    -5.174000000    -0.224000000     0.541000000
O    -0.409000000    -1.198000000     4.390000000
H     0.299000000    -1.325000000     5.020000000
H    -0.513000000    -0.248000000     4.332000000
O     5.582000000    -6.223000000     1.249000000
H     5.412000000    -6.735000000     0.458000000
H     4.791000000    -5.696000000     1.367000000
O     3.018000000    -4.877000000     1.140000000
H     3.248000000    -3.954000000     1.246000000
H     2.086000000    -4.918000000     1.358000000
O    -1.339000000     7.442000000     1.456000000
H    -1.368000000     7.286000000     0.512000000
H    -0.491000000     7.862000000     1.604000000
O     3.119000000     4.271000000    -1.410000000
H     2.509000000     4.348000000    -0.676000000
H     3.985000000     4.337000000    -1.009000000
O     5.160000000     1.595000000    -5.027000000
H     6.048000000     1.668000000    -4.678000000
H     4.592000000     1.820000000    -4.290000000
O    -0.479000000     4.693000000     3.253000000
H    -0.651000000     4.183000000     2.462000000
H    -0.095000000     4.065000000     3.865000000
O    -0.755000000    -6.413000000    -0.309000000
H    -0.345000000    -6.028000000     0.465000000
H    -0.060000000    -6.929000000    -0.717000000
O    -3.499000000     3.661000000    -2.981000000
H    -3.529000000     2.778000000    -3.348000000
H    -3.274000000     3.530000000    -2.060000000
O    -3.309000000     5.222000000     1.892000000
H    -2.853000000     4.454000000     1.548000000
H    -2.657000000     5.922000000     1.862000000
O     1.735000000     6.304000000    -3.292000000
H     1.501000000     7.221000000    -3.146000000
H     2.325000000     6.089000000    -2.570000000
O     3.762000000    -1.445000000     0.952000000
H     2.872000000    -1.569000000     1.280000000
H     4.304000000    -1.402000000     1.741000000
O     6.158000000    -1.258000000    -3.367000000
H     5.806000000    -1.688000000    -2.587000000
H     5.594000000    -0.496000000    -3.496000000
O     5.287000000     3.252000000     0.852000000
H     5.905000000     2.635000000     1.244000000
H     4.425000000     2.884000000     1.046000000
O    -2.963000000    -4.356000000    -0.663000000
H    -2.284000000    -5.020000000    -0.546000000
H    -3.551000000    -4.728000000    -1.321000000
O     4.520000000     0.734000000    -2.298000000
H     3.637000000     0.591000000    -1.956000000
H     4.895000000     1.399000000    -1.720000000
O     3.459000000    -3.431000000    -3.733000000
H     4.182000000    -3.235000000    -3.138000000
H     3.219000000    -2.582000000    -4.107000000
O     3.577000000    -5.651000000    -1.536000000
H     3.257000000    -4.934000000    -2.084000000
H     3.463000000    -5.336000000    -0.640000000
O    -4.738000000     1.663000000     0.156000000
H    -5.169000000     2.404000000    -0.271000000
H    -3.874000000     1.996000000     0.398000000
O     3.113000000    -0.875000000    -4.934000000
H     3.435000000    -0.007000000    -4.688000000
H     2.757000000    -0.757000000    -5.815000000
O    -5.530000000     4.254000000     3.468000000
H    -4.850000000     4.208000000     2.796000000
H    -6.310000000     4.553000000     3.001000000
O    -0.565000000    -3.035000000    -6.043000000
H    -0.665000000    -2.262000000    -5.488000000
H    -1.378000000    -3.074000000    -6.547000000
