144
-2807.54211
O    -5.390000000    -3.970000000     2.103000000
H    -6.125000000    -4.573000000     2.210000000
H    -5.799000000    -3.126000000     1.909000000
O     3.113000000     5.180000000    -0.348000000
H     2.404000000     4.581000000    -0.116000000
H     3.254000000     5.033000000    -1.283000000
O     5.410000000     3.914000000     0.497000000
H     4.595000000     4.416000000     0.493000000
H     5.615000000     3.799000000     1.425000000
O     0.796000000     6.186000000    -5.479000000
H     0.020000000     5.695000000    -5.750000000
H     0.931000000     5.935000000    -4.565000000
O     3.475000000    -0.149000000     0.486000000
H     2.747000000    -0.349000000    -0.103000000
H     3.316000000     0.752000000     0.766000000
O     3.530000000     5.725000000    -3.515000000
H     3.528000000     5.809000000    -4.468000000
H     4.237000000     6.302000000    -3.225000000
O    -1.897000000    -6.485000000     4.364000000
H    -0.995000000    -6.282000000     4.115000000
H    -2.378000000    -5.674000000     4.197000000
O    -3.138000000     3.280000000     0.692000000
H    -2.458000000     3.922000000     0.489000000
H    -3.076000000     2.635000000    -0.013000000
O     0.595000000     3.127000000    -3.982000000
H     1.225000000     3.143000000    -3.261000000
H    -0.201000000     3.508000000    -3.613000000
O    -1.620000000    -3.438000000     6.306000000
H    -2.212000000    -3.243000000     5.580000000
H    -0.963000000    -2.742000000     6.273000000
O     0.805000000     5.599000000    -2.493000000
H     1.639000000     5.469000000    -2.945000000
H     0.788000000     4.916000000    -1.822000000
O    -4.166000000     0.231000000     2.220000000
H    -3.934000000     1.117000000     2.501000000
H    -3.743000000    -0.341000000     2.859000000
O     3.552000000     7.680000000     0.466000000
H     4.134000000     7.553000000     1.215000000
H     3.390000000     6.795000000     0.137000000
O     4.176000000     1.505000000    -2.696000000
H     3.355000000     1.853000000    -2.350000000
H     4.045000000     0.558000000    -2.719000000
O     3.768000000    -1.272000000    -3.389000000
H     3.404000000    -2.095000000    -3.063000000
H     3.543000000    -1.262000000    -4.319000000
O     6.471000000     2.530000000    -1.676000000
H     5.992000000     2.836000000    -0.906000000
H     5.809000000     2.095000000    -2.214000000
O    -5.412000000     4.644000000     1.224000000
H    -5.597000000     5.237000000     0.496000000
H    -4.590000000     4.217000000     0.983000000
O    -1.377000000    -0.846000000    -3.067000000
H    -0.498000000    -1.225000000    -3.084000000
H    -1.860000000    -1.390000000    -2.446000000
O     6.141000000    -0.694000000     0.797000000
H     5.215000000    -0.510000000     0.635000000
H     6.203000000    -1.649000000     0.777000000
O    -3.397000000    -6.951000000     1.272000000
H    -3.343000000    -7.280000000     2.170000000
H    -2.522000000    -6.609000000     1.089000000
O    -0.997000000     3.813000000     4.254000000
H    -0.320000000     4.349000000     3.841000000
H    -0.605000000     2.942000000     4.322000000
O    -3.854000000    -0.880000000    -0.694000000
H    -4.209000000    -0.829000000     0.193000000
H    -3.164000000    -0.218000000    -0.714000000
O     0.333000000     1.153000000     3.791000000
H     0.837000000     0.341000000     3.726000000
H    -0.087000000     1.106000000     4.650000000
O    -2.314000000     0.464000000     5.138000000
H    -2.531000000     1.375000000     4.939000000
H    -3.079000000     0.133000000     5.610000000
O    -3.741000000    -4.306000000     4.233000000
H    -4.607000000    -4.155000000     4.611000000
H    -3.795000000    -3.929000000     3.354000000
O     0.849000000     6.702000000     2.344000000
H     1.288000000     7.298000000     1.737000000
H     0.907000000     7.139000000     3.194000000
O     4.905000000    -3.354000000    -0.647000000
H     4.360000000    -3.306000000    -1.433000000
H     4.279000000    -3.407000000     0.075000000
O    -4.938000000    -3.672000000    -1.552000000
H    -5.508000000    -3.349000000    -2.250000000
H    -5.072000000    -3.059000000    -0.830000000
O     1.627000000    -3.720000000     5.424000000
H     1.464000000    -3.900000000     6.350000000
H     2.048000000    -2.860000000     5.418000000
O     4.610000000     2.713000000    -5.237000000
H     3.929000000     2.686000000    -5.909000000
H     4.208000000     2.302000000    -4.472000000
O     1.053000000     4.056000000     2.557000000
H     1.107000000     3.665000000     1.685000000
H     1.121000000     4.998000000     2.402000000
O     3.431000000     2.085000000     3.263000000
H     2.725000000     1.533000000     3.599000000
H     3.169000000     2.976000000     3.494000000
O     0.399000000    -4.932000000    -2.543000000
H     0.449000000    -5.759000000    -2.063000000
H    -0.450000000    -4.564000000    -2.300000000
O     2.479000000     2.884000000    -6.807000000
H     1.899000000     2.217000000    -7.177000000
H     1.964000000     3.287000000    -6.109000000
O    -0.887000000     7.815000000    -2.813000000
H    -0.354000000     7.021000000    -2.766000000
H    -0.502000000     8.401000000    -2.162000000
O    -1.261000000     5.221000000     0.348000000
H    -0.928000000     5.836000000     1.001000000
H    -0.475000000     4.829000000    -0.033000000
O     0.424000000    -5.067000000     3.303000000
H     0.874000000    -4.334000000     3.723000000
H     1.043000000    -5.794000000     3.362000000
O     0.707000000    -3.134000000    -4.570000000
H     0.662000000    -3.674000000    -3.780000000
H     0.611000000    -3.756000000    -5.291000000
O     3.456000000    -3.470000000     1.719000000
H     3.530000000    -4.260000000     2.254000000
H     3.461000000    -2.751000000     2.351000000
O     2.963000000    -3.875000000    -2.522000000
H     3.468000000    -4.447000000    -3.100000000
H     2.100000000    -4.285000000    -2.473000000
O    -2.142000000    -3.701000000    -2.266000000
H    -2.310000000    -3.700000000    -3.209000000
H    -3.007000000    -3.598000000    -1.869000000
O     2.144000000    -5.706000000     0.763000000
H     2.235000000    -4.771000000     0.947000000
H     2.965000000    -5.948000000     0.335000000
O     0.091000000    -7.480000000     1.132000000
H     0.525000000    -8.053000000     1.763000000
H     0.688000000    -6.738000000     1.032000000
O    -3.142000000     2.709000000     3.328000000
H    -2.462000000     3.347000000     3.542000000
H    -3.375000000     2.902000000     2.420000000
O     0.058000000     0.565000000    -4.827000000
H    -0.638000000     0.389000000    -4.194000000
H     0.230000000     1.503000000    -4.738000000
O    -2.209000000     1.766000000    -2.190000000
H    -2.927000000     1.217000000    -2.505000000
H    -1.430000000     1.219000000    -2.286000000
O     1.971000000    -1.171000000    -5.769000000
H     1.260000000    -0.534000000    -5.837000000
H     1.623000000    -1.859000000    -5.202000000
O     1.047000000     8.689000000    -0.904000000
H     1.205000000     9.441000000    -0.333000000
H     1.744000000     8.071000000    -0.685000000
