144
-2815.87642
O     3.994000000     1.085000000    -3.138000000
H     3.125000000     0.886000000    -3.486000000
H     4.261000000     1.880000000    -3.600000000
O     0.354000000    -4.937000000     3.120000000
H    -0.482000000    -4.785000000     3.562000000
H     0.994000000    -4.991000000     3.830000000
O    -1.593000000    -1.208000000     4.988000000
H    -2.074000000    -1.644000000     4.284000000
H    -0.801000000    -1.735000000     5.099000000
O    -1.593000000     5.532000000     4.707000000
H    -2.199000000     5.472000000     5.445000000
H    -0.851000000     6.033000000     5.046000000
O    -1.050000000     0.685000000    -2.901000000
H    -0.679000000     0.800000000    -2.027000000
H    -1.270000000    -0.246000000    -2.948000000
O     4.530000000    -4.655000000     3.401000000
H     4.880000000    -3.777000000     3.553000000
H     4.326000000    -4.673000000     2.466000000
O    -1.536000000     5.003000000    -4.330000000
H    -1.654000000     5.055000000    -3.381000000
H    -1.310000000     4.087000000    -4.493000000
O     0.930000000    -6.151000000     0.681000000
H     1.246000000    -6.994000000     1.008000000
H     0.642000000    -5.683000000     1.465000000
O    -1.080000000    -2.146000000    -3.691000000
H    -1.402000000    -2.304000000    -2.803000000
H    -1.863000000    -2.183000000    -4.240000000
O    -1.940000000     4.876000000    -1.743000000
H    -2.710000000     4.308000000    -1.707000000
H    -1.651000000     4.946000000    -0.833000000
O    -1.265000000     2.395000000    -4.873000000
H    -1.342000000     1.854000000    -4.087000000
H    -1.293000000     1.770000000    -5.597000000
O     1.637000000     4.931000000    -0.511000000
H     2.339000000     4.867000000     0.137000000
H     0.926000000     4.403000000    -0.147000000
O     2.202000000    -2.092000000     3.212000000
H     2.916000000    -1.966000000     3.838000000
H     2.600000000    -1.926000000     2.358000000
O    -2.275000000    -6.043000000    -2.657000000
H    -2.339000000    -6.992000000    -2.547000000
H    -3.049000000    -5.698000000    -2.212000000
O    -4.492000000     5.437000000     1.782000000
H    -3.535000000     5.427000000     1.739000000
H    -4.761000000     5.944000000     1.016000000
O     1.254000000     1.327000000    -4.070000000
H     1.127000000     2.272000000    -3.984000000
H     0.576000000     0.943000000    -3.514000000
O    -2.794000000    -2.741000000    -1.680000000
H    -3.394000000    -3.436000000    -1.953000000
H    -3.283000000    -2.246000000    -1.023000000
O    -4.696000000     3.994000000    -1.126000000
H    -4.737000000     4.949000000    -1.064000000
H    -5.500000000     3.750000000    -1.586000000
O    -2.795000000     2.859000000     4.156000000
H    -2.472000000     2.665000000     3.276000000
H    -2.337000000     3.661000000     4.408000000
O    -0.895000000     1.750000000     5.765000000
H    -1.580000000     2.131000000     5.215000000
H    -1.045000000     0.806000000     5.715000000
O    -2.992000000    -2.507000000     2.794000000
H    -3.773000000    -2.932000000     3.146000000
H    -3.329000000    -1.866000000     2.168000000
O    -4.345000000    -0.885000000     0.958000000
H    -4.297000000     0.042000000     0.726000000
H    -5.043000000    -1.235000000     0.404000000
O     5.537000000    -6.121000000    -1.711000000
H     5.216000000    -6.812000000    -2.290000000
H     4.979000000    -5.368000000    -1.906000000
O     3.463000000    -2.352000000     0.845000000
H     3.629000000    -3.294000000     0.899000000
H     2.550000000    -2.285000000     0.568000000
O     3.912000000    -5.120000000     0.947000000
H     3.215000000    -5.770000000     0.858000000
H     4.639000000    -5.476000000     0.436000000
O    -5.432000000     4.815000000     4.451000000
H    -5.311000000     4.945000000     3.510000000
H    -5.033000000     3.963000000     4.628000000
O    -1.646000000     8.329000000     1.195000000
H    -0.782000000     8.213000000     0.802000000
H    -1.936000000     7.441000000     1.403000000
O     3.867000000     2.566000000    -0.571000000
H     3.694000000     2.219000000    -1.446000000
H     4.319000000     1.856000000    -0.116000000
O     1.470000000     5.226000000     3.513000000
H     1.618000000     4.510000000     4.130000000
H     1.430000000     4.801000000     2.657000000
O     0.894000000     7.772000000     0.149000000
H     1.130000000     7.364000000    -0.684000000
H     0.764000000     7.037000000     0.748000000
O    -2.456000000    -4.707000000     1.035000000
H    -2.119000000    -4.212000000     1.783000000
H    -1.959000000    -4.377000000     0.287000000
O     0.903000000    -1.303000000    -5.573000000
H     0.225000000    -1.484000000    -4.922000000
H     1.431000000    -0.608000000    -5.182000000
O    -1.697000000     5.674000000     1.978000000
H    -1.577000000     4.758000000     1.729000000
H    -1.824000000     5.651000000     2.927000000
O     1.022000000     3.926000000    -2.898000000
H     0.357000000     4.548000000    -3.191000000
H     1.326000000     4.276000000    -2.061000000
O    -4.154000000     0.338000000     3.917000000
H    -4.074000000     1.291000000     3.953000000
H    -3.836000000     0.104000000     3.045000000
O     4.117000000    -3.969000000    -2.558000000
H     3.445000000    -3.910000000    -3.238000000
H     4.315000000    -3.058000000    -2.339000000
O     3.033000000     3.507000000     1.621000000
H     3.272000000     3.177000000     0.755000000
H     3.195000000     2.771000000     2.211000000
O     5.233000000     4.714000000    -1.223000000
H     5.053000000     3.811000000    -0.962000000
H     4.819000000     5.247000000    -0.545000000
O     1.789000000     6.959000000    -2.408000000
H     2.244000000     6.396000000    -1.782000000
H     2.199000000     6.762000000    -3.250000000
O     4.571000000     0.301000000     0.859000000
H     4.471000000     0.697000000     1.724000000
H     4.441000000    -0.636000000     1.007000000
O     4.642000000    -2.151000000    -4.975000000
H     5.468000000    -1.807000000    -4.636000000
H     4.144000000    -2.391000000    -4.193000000
O     0.439000000    -5.670000000    -2.036000000
H    -0.507000000    -5.694000000    -2.179000000
H     0.547000000    -5.894000000    -1.112000000
O     1.680000000    -3.993000000    -3.841000000
H     1.010000000    -3.327000000    -3.995000000
H     1.393000000    -4.442000000    -3.046000000
O    -4.306000000     2.072000000     0.850000000
H    -4.541000000     2.504000000     0.029000000
H    -3.452000000     2.438000000     1.077000000
O     2.631000000     3.867000000    -5.184000000
H     3.458000000     3.510000000    -4.859000000
H     2.108000000     4.015000000    -4.396000000
O     4.095000000    -1.388000000    -1.988000000
H     4.113000000    -0.499000000    -2.343000000
H     4.106000000    -1.267000000    -1.039000000
O    -6.527000000     1.795000000     2.633000000
H    -6.915000000     2.667000000     2.720000000
H    -5.732000000     1.937000000     2.120000000
O    -5.625000000    -4.397000000     0.951000000
H    -4.769000000    -4.624000000     0.588000000
H    -5.915000000    -5.193000000     1.396000000
