144
-2810.31506
O     3.661000000     0.571000000    -4.842000000
H     3.210000000     1.406000000    -4.720000000
H     3.874000000     0.282000000    -3.954000000
O     3.336000000    -1.809000000     3.150000000
H     3.045000000    -2.546000000     3.687000000
H     3.059000000    -1.034000000     3.638000000
O    -3.619000000     1.464000000    -3.554000000
H    -3.051000000     0.738000000    -3.809000000
H    -3.446000000     1.588000000    -2.621000000
O     3.918000000     4.663000000     0.312000000
H     3.735000000     5.548000000     0.626000000
H     3.154000000     4.151000000     0.578000000
O    -0.786000000    -2.015000000     4.916000000
H    -0.632000000    -1.072000000     4.968000000
H    -1.612000000    -2.096000000     4.438000000
O    -3.380000000    -0.364000000     4.284000000
H    -2.886000000    -0.167000000     5.081000000
H    -3.531000000     0.490000000     3.879000000
O    -0.419000000     6.150000000    -4.686000000
H    -1.228000000     6.388000000    -5.140000000
H    -0.713000000     5.756000000    -3.865000000
O     2.851000000     1.127000000     2.080000000
H     2.745000000     1.672000000     2.860000000
H     1.965000000     0.830000000     1.873000000
O     1.871000000     7.021000000    -3.076000000
H     2.795000000     7.261000000    -3.152000000
H     1.583000000     6.888000000    -3.978000000
O    -4.566000000    -2.972000000     4.034000000
H    -5.423000000    -2.916000000     4.458000000
H    -4.244000000    -2.070000000     4.023000000
O    -3.851000000    -5.969000000     0.821000000
H    -3.328000000    -5.244000000     0.477000000
H    -3.205000000    -6.590000000     1.158000000
O    -4.172000000     4.611000000    -2.069000000
H    -4.065000000     5.369000000    -2.643000000
H    -5.063000000     4.307000000    -2.237000000
O    -0.303000000    -6.866000000    -1.054000000
H     0.337000000    -7.272000000    -0.471000000
H    -1.071000000    -7.435000000    -1.001000000
O    -0.348000000     3.054000000    -4.818000000
H     0.037000000     3.123000000    -3.945000000
H    -1.195000000     3.493000000    -4.742000000
O    -2.421000000    -4.116000000     5.740000000
H    -3.224000000    -4.061000000     5.221000000
H    -1.913000000    -3.348000000     5.477000000
O    -0.532000000     5.761000000    -2.198000000
H     0.355000000     6.026000000    -2.439000000
H    -0.411000000     4.977000000    -1.663000000
O    -4.974000000     1.279000000    -0.134000000
H    -4.678000000     0.503000000     0.342000000
H    -4.246000000     1.896000000    -0.064000000
O     2.981000000     3.218000000    -3.626000000
H     2.235000000     2.987000000    -3.072000000
H     3.344000000     4.006000000    -3.222000000
O     2.648000000    -3.257000000    -1.992000000
H     2.933000000    -4.073000000    -2.403000000
H     2.078000000    -2.848000000    -2.643000000
O    -2.453000000    -1.095000000    -3.742000000
H    -1.534000000    -1.356000000    -3.798000000
H    -2.939000000    -1.869000000    -4.028000000
O    -1.350000000    -7.408000000     1.874000000
H    -1.461000000    -8.196000000     2.407000000
H    -0.458000000    -7.473000000     1.535000000
O    -0.873000000     3.478000000     3.975000000
H    -0.629000000     4.290000000     3.530000000
H    -0.754000000     3.670000000     4.905000000
O    -3.625000000    -2.716000000    -0.546000000
H    -3.470000000    -1.771000000    -0.520000000
H    -4.490000000    -2.806000000    -0.945000000
O    -0.786000000     0.841000000     4.941000000
H    -0.119000000     1.104000000     5.575000000
H    -1.040000000     1.656000000     4.507000000
O    -3.339000000     2.121000000     2.874000000
H    -2.802000000     2.585000000     3.516000000
H    -3.057000000     2.470000000     2.029000000
O     2.801000000     7.591000000     0.551000000
H     2.969000000     7.499000000     1.489000000
H     1.850000000     7.680000000     0.486000000
O     1.477000000    -3.832000000     4.709000000
H     0.913000000    -4.605000000     4.727000000
H     0.885000000    -3.108000000     4.505000000
O     4.993000000     2.180000000    -1.117000000
H     4.764000000     2.986000000    -0.654000000
H     5.929000000     2.265000000    -1.297000000
O     1.596000000     4.333000000     1.626000000
H     1.007000000     4.357000000     0.871000000
H     1.197000000     4.929000000     2.260000000
O     4.182000000    -0.205000000    -2.195000000
H     4.303000000    -0.889000000    -1.536000000
H     4.125000000     0.607000000    -1.691000000
O     2.453000000     3.035000000     3.948000000
H     3.097000000     3.560000000     4.423000000
H     2.125000000     3.619000000     3.264000000
O    -0.450000000    -5.213000000    -3.417000000
H    -0.014000000    -5.727000000    -2.738000000
H    -1.282000000    -4.953000000    -3.023000000
O     0.908000000     3.537000000    -7.263000000
H     1.073000000     2.695000000    -7.687000000
H     0.512000000     3.308000000    -6.422000000
O    -1.426000000     8.328000000    -1.848000000
H    -1.469000000     7.380000000    -1.970000000
H    -0.584000000     8.477000000    -1.418000000
O    -1.866000000     6.013000000     0.695000000
H    -1.485000000     5.654000000     1.497000000
H    -1.544000000     5.438000000     0.000000000
O    -0.273000000     5.915000000     3.059000000
H    -1.188000000     6.176000000     3.160000000
H     0.208000000     6.742000000     3.010000000
O     3.624000000    -5.571000000     3.343000000
H     2.789000000    -5.363000000     3.762000000
H     3.742000000    -4.882000000     2.689000000
O    -0.631000000    -5.056000000     3.203000000
H    -0.195000000    -4.818000000     2.384000000
H    -1.140000000    -5.837000000     2.985000000
O     0.049000000    -2.401000000    -3.859000000
H     0.262000000    -3.332000000    -3.927000000
H     0.678000000    -1.969000000    -4.437000000
O     4.994000000    -0.082000000     0.685000000
H     4.920000000     0.694000000     0.129000000
H     4.261000000    -0.009000000     1.297000000
O     3.883000000    -3.372000000     1.040000000
H     3.365000000    -3.138000000     0.269000000
H     3.791000000    -2.621000000     1.626000000
O    -2.900000000    -4.563000000    -2.392000000
H    -3.352000000    -3.925000000    -2.944000000
H    -2.899000000    -4.168000000    -1.520000000
O     2.871000000    -6.154000000     0.493000000
H     3.322000000    -5.319000000     0.619000000
H     3.539000000    -6.816000000     0.672000000
O    -2.913000000     3.331000000    -0.002000000
H    -3.372000000     3.841000000    -0.669000000
H    -1.998000000     3.602000000    -0.081000000
O     3.764000000     3.586000000    -6.175000000
H     3.179000000     3.457000000    -5.428000000
H     3.425000000     2.998000000    -6.850000000
O    -0.089000000     0.461000000    -5.525000000
H    -1.002000000     0.379000000    -5.800000000
H     0.036000000     1.400000000    -5.388000000
O    -2.606000000    -0.089000000    -0.971000000
H    -2.391000000    -0.192000000    -1.898000000
H    -1.779000000     0.160000000    -0.560000000
O     1.945000000    -1.191000000    -6.144000000
H     1.146000000    -0.711000000    -5.928000000
H     2.655000000    -0.620000000    -5.850000000
