144
-2814.67846
O    -3.276000000    -2.047000000     6.341000000
H    -3.424000000    -2.992000000     6.350000000
H    -3.771000000    -1.735000000     5.583000000
O     6.668000000    -2.264000000    -3.684000000
H     7.063000000    -2.585000000    -4.495000000
H     5.738000000    -2.175000000    -3.889000000
O    -3.117000000     4.311000000     2.669000000
H    -3.596000000     4.349000000     1.842000000
H    -3.603000000     3.680000000     3.199000000
O     4.066000000    -5.496000000    -0.984000000
H     4.370000000    -4.595000000    -0.871000000
H     3.190000000    -5.502000000    -0.599000000
O    -1.049000000    -0.839000000     6.369000000
H    -0.447000000    -1.430000000     6.822000000
H    -1.864000000    -1.337000000     6.298000000
O     5.728000000     0.534000000    -2.664000000
H     4.831000000     0.469000000    -2.338000000
H     6.090000000    -0.344000000    -2.548000000
O     7.387000000     2.289000000    -1.310000000
H     7.971000000     1.694000000    -0.840000000
H     6.929000000     1.730000000    -1.937000000
O     4.871000000     2.201000000    -0.140000000
H     5.729000000     2.150000000    -0.561000000
H     4.356000000     1.514000000    -0.562000000
O     7.515000000    -1.841000000     0.655000000
H     6.802000000    -2.143000000     0.093000000
H     7.690000000    -2.580000000     1.238000000
O    -3.146000000    -3.817000000    -2.201000000
H    -3.225000000    -4.565000000    -2.793000000
H    -2.229000000    -3.825000000    -1.926000000
O    -3.048000000     0.907000000     5.483000000
H    -3.252000000     0.161000000     4.918000000
H    -2.738000000     0.512000000     6.298000000
O     5.067000000    -2.961000000    -0.197000000
H     4.559000000    -3.430000000     0.464000000
H     4.455000000    -2.321000000    -0.560000000
O     1.003000000     4.794000000     0.271000000
H     1.845000000     4.741000000     0.723000000
H     0.355000000     4.588000000     0.945000000
O    -2.421000000     3.666000000    -2.954000000
H    -1.476000000     3.512000000    -2.952000000
H    -2.509000000     4.615000000    -2.867000000
O    -6.467000000    -2.787000000     0.286000000
H    -7.017000000    -2.932000000     1.056000000
H    -5.587000000    -3.034000000     0.571000000
O    -0.563000000    -4.830000000    -1.739000000
H    -0.413000000    -5.017000000    -2.666000000
H     0.275000000    -5.022000000    -1.317000000
O     2.040000000    -0.417000000     2.727000000
H     1.178000000    -0.383000000     2.314000000
H     2.050000000    -1.253000000     3.194000000
O     1.827000000     1.893000000    -3.341000000
H     2.583000000     2.014000000    -3.917000000
H     2.207000000     1.714000000    -2.481000000
O     0.005000000     0.690000000    -4.896000000
H    -0.670000000     0.672000000    -4.218000000
H     0.653000000     1.315000000    -4.572000000
O     4.407000000     2.721000000    -4.478000000
H     5.076000000     3.363000000    -4.240000000
H     4.898000000     1.993000000    -4.859000000
O     1.439000000    -5.278000000     0.328000000
H     1.594000000    -6.045000000     0.879000000
H     0.752000000    -4.791000000     0.784000000
O    -6.045000000     1.242000000     1.433000000
H    -6.415000000     0.482000000     1.882000000
H    -5.444000000     1.628000000     2.070000000
O     3.123000000     2.654000000     3.853000000
H     3.781000000     2.419000000     4.508000000
H     2.987000000     1.850000000     3.352000000
O    -4.017000000    -4.361000000     0.352000000
H    -3.595000000    -3.979000000    -0.417000000
H    -4.481000000    -5.127000000     0.015000000
O    -4.911000000     3.231000000    -1.841000000
H    -4.160000000     3.339000000    -2.424000000
H    -5.527000000     2.695000000    -2.339000000
O     4.402000000    -0.807000000    -6.343000000
H     3.532000000    -0.488000000    -6.581000000
H     4.235000000    -1.516000000    -5.722000000
O    -4.364000000    -3.111000000     2.716000000
H    -4.141000000    -3.322000000     1.809000000
H    -4.887000000    -3.855000000     3.013000000
O    -0.834000000     2.753000000     5.152000000
H    -0.320000000     2.349000000     5.851000000
H    -1.584000000     2.169000000     5.038000000
O    -0.239000000     3.848000000     2.535000000
H    -0.099000000     3.286000000     3.297000000
H    -1.150000000     4.133000000     2.611000000
O     6.486000000     0.604000000    -5.253000000
H     6.292000000     0.539000000    -4.318000000
H     5.709000000     0.247000000    -5.684000000
O    -0.568000000    -4.216000000     1.694000000
H    -0.879000000    -3.317000000     1.797000000
H    -1.200000000    -4.746000000     2.180000000
O     1.032000000     0.636000000     5.480000000
H     0.224000000     0.188000000     5.730000000
H     0.927000000     0.818000000     4.546000000
O    -6.576000000    -1.580000000    -1.916000000
H    -5.961000000    -0.862000000    -1.764000000
H    -6.561000000    -2.085000000    -1.103000000
O     1.742000000    -3.407000000    -5.258000000
H     1.463000000    -4.008000000    -4.567000000
H     0.925000000    -3.092000000    -5.646000000
O     3.244000000     4.237000000     1.340000000
H     3.904000000     3.672000000     0.940000000
H     3.200000000     3.946000000     2.251000000
O    -4.711000000    -1.018000000     4.261000000
H    -5.570000000    -0.915000000     3.851000000
H    -4.301000000    -1.738000000     3.781000000
O     4.630000000     0.353000000     2.442000000
H     3.780000000    -0.039000000     2.641000000
H     4.653000000     0.400000000     1.486000000
O    -1.868000000    -7.136000000    -0.938000000
H    -2.802000000    -7.196000000    -0.735000000
H    -1.706000000    -6.199000000    -1.044000000
O     0.946000000     6.772000000    -1.454000000
H     0.198000000     7.183000000    -1.021000000
H     1.015000000     5.909000000    -1.044000000
O     3.904000000    -2.502000000    -3.931000000
H     3.085000000    -2.895000000    -4.232000000
H     3.705000000    -2.179000000    -3.052000000
O     0.080000000     3.884000000    -3.578000000
H     0.924000000     3.513000000    -3.321000000
H    -0.013000000     3.650000000    -4.502000000
O    -1.753000000     0.613000000    -2.490000000
H    -2.097000000     1.419000000    -2.104000000
H    -1.578000000     0.044000000    -1.740000000
O    -4.011000000    -1.171000000    -3.639000000
H    -3.813000000    -1.880000000    -3.028000000
H    -4.345000000    -0.464000000    -3.087000000
O    -3.878000000     4.903000000     0.073000000
H    -3.356000000     5.520000000    -0.440000000
H    -4.091000000     4.201000000    -0.541000000
O    -8.273000000     1.907000000     0.064000000
H    -8.090000000     2.784000000    -0.273000000
H    -7.427000000     1.594000000     0.385000000
O    -4.789000000     2.359000000     4.041000000
H    -5.469000000     2.749000000     4.591000000
H    -4.199000000     1.929000000     4.660000000
O    -4.960000000     0.268000000    -1.117000000
H    -5.174000000     0.541000000    -0.225000000
H    -5.396000000     0.912000000    -1.675000000
O     3.338000000    -4.022000000     1.755000000
H     3.742000000    -4.746000000     2.234000000
H     2.537000000    -4.395000000     1.389000000
