144
-2788.47778
O    -2.765000000     2.508000000     5.029000000
H    -3.469000000     2.818000000     4.459000000
H    -2.510000000     3.279000000     5.535000000
O     6.623000000     1.571000000    -2.031000000
H     7.380000000     1.323000000    -2.562000000
H     6.033000000     0.820000000    -2.089000000
O     4.507000000    -0.410000000    -3.491000000
H     4.511000000    -0.122000000    -4.403000000
H     3.702000000    -0.039000000    -3.127000000
O     2.446000000     2.008000000     1.145000000
H     1.856000000     2.746000000     1.297000000
H     1.918000000     1.375000000     0.659000000
O     2.588000000    -2.455000000    -7.359000000
H     1.934000000    -2.404000000    -6.662000000
H     2.920000000    -1.562000000    -7.443000000
O    -2.745000000     3.974000000     1.575000000
H    -2.502000000     4.374000000     0.740000000
H    -2.390000000     4.567000000     2.237000000
O    -0.491000000     5.680000000    -5.974000000
H    -0.893000000     4.915000000    -5.563000000
H    -0.153000000     6.196000000    -5.242000000
O    -1.644000000    -4.533000000     2.688000000
H    -0.886000000    -3.950000000     2.726000000
H    -1.297000000    -5.353000000     2.337000000
O     3.572000000    -6.198000000    -0.872000000
H     3.708000000    -5.306000000    -1.193000000
H     2.858000000    -6.118000000    -0.239000000
O    -5.946000000    -3.480000000     2.866000000
H    -5.452000000    -3.294000000     2.068000000
H    -5.276000000    -3.635000000     3.532000000
O    -3.962000000     1.448000000    -5.685000000
H    -3.242000000     0.821000000    -5.620000000
H    -3.831000000     2.041000000    -4.945000000
O    -5.723000000     4.768000000     1.374000000
H    -4.770000000     4.693000000     1.344000000
H    -6.038000000     3.871000000     1.260000000
O     1.737000000     4.598000000    -3.068000000
H     1.542000000     5.028000000    -2.235000000
H     1.404000000     3.707000000    -2.962000000
O    -3.012000000    -3.833000000     4.774000000
H    -2.411000000    -4.437000000     5.211000000
H    -2.712000000    -3.814000000     3.865000000
O    -0.037000000    -0.525000000     7.126000000
H     0.512000000    -1.308000000     7.085000000
H     0.370000000     0.085000000     6.511000000
O    -3.740000000    -1.485000000    -3.779000000
H    -3.868000000    -1.503000000    -4.727000000
H    -2.989000000    -0.906000000    -3.649000000
O    -3.331000000     2.802000000    -3.082000000
H    -3.436000000     3.664000000    -2.680000000
H    -3.713000000     2.194000000    -2.450000000
O     1.562000000    -4.048000000    -4.948000000
H     0.856000000    -4.543000000    -4.532000000
H     1.757000000    -4.535000000    -5.748000000
O     2.381000000     2.154000000    -5.205000000
H     1.536000000     2.532000000    -5.447000000
H     2.175000000     1.534000000    -4.505000000
O    -5.039000000    -2.178000000    -1.368000000
H    -4.724000000    -2.189000000    -2.272000000
H    -5.027000000    -1.254000000    -1.121000000
O    -1.310000000     3.206000000    -4.845000000
H    -2.026000000     3.303000000    -4.216000000
H    -0.639000000     2.716000000    -4.371000000
O    -4.813000000    -1.876000000     5.937000000
H    -4.315000000    -1.162000000     5.540000000
H    -4.395000000    -2.672000000     5.608000000
O     3.162000000    -2.270000000     2.512000000
H     3.550000000    -2.055000000     1.663000000
H     3.788000000    -2.871000000     2.915000000
O     3.572000000    -3.650000000    -3.367000000
H     3.877000000    -2.754000000    -3.226000000
H     2.836000000    -3.559000000    -3.972000000
O     0.449000000    -6.063000000    -1.822000000
H     0.915000000    -5.247000000    -1.636000000
H    -0.028000000    -5.887000000    -2.633000000
O     2.286000000     0.688000000     3.728000000
H     2.542000000     1.160000000     2.936000000
H     2.198000000    -0.223000000     3.446000000
O    -2.683000000    -0.223000000     5.238000000
H    -1.862000000    -0.655000000     5.474000000
H    -2.415000000     0.631000000     4.900000000
O     0.462000000     3.682000000     1.723000000
H     0.656000000     4.314000000     2.415000000
H    -0.494000000     3.652000000     1.687000000
O    -0.524000000    -0.425000000    -8.187000000
H    -0.646000000     0.383000000    -7.687000000
H    -0.094000000    -0.144000000    -8.994000000
O     0.764000000     1.970000000     5.786000000
H     1.016000000     1.582000000     4.948000000
H     0.292000000     2.769000000     5.549000000
O     4.641000000     3.242000000    -0.002000000
H     4.250000000     2.448000000     0.362000000
H     4.690000000     3.075000000    -0.944000000
O     4.782000000    -2.843000000    -0.046000000
H     5.176000000    -3.715000000    -0.055000000
H     5.396000000    -2.297000000    -0.538000000
O     4.616000000    -0.275000000    -6.396000000
H     4.109000000     0.332000000    -6.934000000
H     5.506000000     0.076000000    -6.412000000
O    -4.123000000    -3.715000000     0.731000000
H    -4.407000000    -3.178000000    -0.009000000
H    -3.180000000    -3.818000000     0.603000000
O     1.337000000    -1.267000000    -5.183000000
H     1.619000000    -0.588000000    -4.570000000
H     1.408000000    -2.082000000    -4.687000000
O     1.028000000    -3.295000000     5.825000000
H     0.792000000    -3.846000000     6.572000000
H     1.838000000    -2.862000000     6.094000000
O     0.026000000    -3.014000000    -2.400000000
H    -0.008000000    -2.411000000    -1.658000000
H    -0.869000000    -3.343000000    -2.483000000
O     4.627000000     3.399000000    -4.261000000
H     4.530000000     4.308000000    -4.545000000
H     3.888000000     2.942000000    -4.663000000
O     1.246000000    -4.223000000     3.025000000
H     1.817000000    -3.469000000     2.877000000
H     1.296000000    -4.379000000     3.968000000
O     3.811000000     2.195000000    -7.302000000
H     3.188000000     2.165000000    -6.576000000
H     4.037000000     3.122000000    -7.386000000
O    -4.861000000     0.854000000    -1.730000000
H    -4.969000000     0.443000000    -2.587000000
H    -5.755000000     0.991000000    -1.416000000
O    -1.253000000     2.239000000    -7.536000000
H    -2.041000000     2.501000000    -8.012000000
H    -1.474000000     2.375000000    -6.614000000
O     1.604000000    -5.929000000     1.001000000
H     0.737000000    -6.323000000     0.897000000
H     1.500000000    -5.309000000     1.723000000
O    -6.617000000     1.031000000     3.513000000
H    -5.700000000     1.252000000     3.350000000
H    -6.800000000     0.308000000     2.914000000
O    -1.962000000    -4.960000000    -0.691000000
H    -2.412000000    -5.783000000    -0.882000000
H    -1.060000000    -5.218000000    -0.504000000
O    -1.616000000    -0.064000000    -4.747000000
H    -0.908000000    -0.447000000    -5.265000000
H    -1.192000000     0.619000000    -4.229000000
O    -4.572000000     1.740000000     1.054000000
H    -4.001000000     2.413000000     1.426000000
H    -4.682000000     1.999000000     0.139000000
O    -3.685000000     5.566000000    -0.540000000
H    -3.179000000     6.378000000    -0.572000000
H    -4.263000000     5.613000000    -1.301000000
