144
-2806.36717
O    -4.012000000     1.960000000    -2.720000000
H    -3.740000000     2.462000000    -1.952000000
H    -3.973000000     2.587000000    -3.442000000
O     2.480000000    -2.003000000    -3.739000000
H     1.829000000    -2.571000000    -3.327000000
H     3.219000000    -2.005000000    -3.131000000
O     0.836000000    -3.191000000    -2.116000000
H    -0.030000000    -2.840000000    -1.907000000
H     1.141000000    -3.579000000    -1.296000000
O    -3.548000000    -0.322000000     5.495000000
H    -3.692000000    -0.752000000     6.338000000
H    -2.617000000    -0.453000000     5.314000000
O    -1.567000000     3.625000000    -1.311000000
H    -2.149000000     3.997000000    -1.974000000
H    -0.938000000     3.104000000    -1.810000000
O     1.285000000     1.929000000     1.353000000
H     1.676000000     2.168000000     0.513000000
H     0.975000000     1.033000000     1.226000000
O    -3.774000000     5.958000000     0.392000000
H    -4.062000000     5.046000000     0.416000000
H    -2.841000000     5.920000000     0.601000000
O    -3.011000000     4.872000000    -3.117000000
H    -2.602000000     4.808000000    -3.980000000
H    -3.873000000     5.252000000    -3.288000000
O     6.387000000    -1.840000000     4.013000000
H     5.650000000    -1.265000000     3.807000000
H     6.046000000    -2.434000000     4.683000000
O    -5.782000000     5.456000000    -1.732000000
H    -5.189000000     5.542000000    -0.985000000
H    -6.657000000     5.481000000    -1.346000000
O     4.730000000    -4.088000000     2.090000000
H     4.811000000    -3.879000000     1.159000000
H     4.996000000    -3.285000000     2.539000000
O    -5.509000000     3.485000000     1.069000000
H    -5.890000000     2.698000000     0.679000000
H    -6.236000000     3.897000000     1.536000000
O    -2.066000000    -3.194000000    -1.199000000
H    -2.385000000    -3.125000000    -0.299000000
H    -2.850000000    -3.370000000    -1.718000000
O     2.717000000    -5.260000000    -1.004000000
H     3.501000000    -4.819000000    -1.334000000
H     2.588000000    -4.896000000    -0.128000000
O     5.309000000    -1.348000000    -3.101000000
H     6.134000000    -1.354000000    -2.617000000
H     4.675000000    -0.974000000    -2.488000000
O     1.278000000     2.545000000    -3.739000000
H     1.745000000     2.016000000    -4.385000000
H     1.894000000     2.632000000    -3.011000000
O     5.973000000    -2.625000000    -5.349000000
H     5.711000000    -2.158000000    -4.555000000
H     6.661000000    -3.223000000    -5.060000000
O    -0.872000000     2.798000000     2.987000000
H    -0.425000000     2.651000000     3.821000000
H    -0.237000000     2.527000000     2.324000000
O     4.437000000     3.452000000    -4.288000000
H     5.330000000     3.198000000    -4.058000000
H     3.881000000     2.845000000    -3.798000000
O    -5.674000000    -0.298000000     0.982000000
H    -5.811000000    -0.712000000     1.834000000
H    -4.822000000     0.132000000     1.059000000
O    -2.878000000    -3.947000000     1.360000000
H    -3.671000000    -3.807000000     0.842000000
H    -3.119000000    -4.629000000     1.986000000
O     4.361000000     0.600000000    -4.605000000
H     4.945000000    -0.004000000    -4.146000000
H     3.654000000     0.045000000    -4.936000000
O     4.184000000     1.481000000     3.496000000
H     4.365000000     0.964000000     4.281000000
H     4.023000000     2.365000000     3.823000000
O    -5.443000000    -0.899000000     3.610000000
H    -5.200000000    -0.107000000     4.091000000
H    -4.795000000    -1.550000000     3.880000000
O    -7.462000000     1.699000000     0.381000000
H    -7.934000000     1.683000000    -0.451000000
H    -7.184000000     0.793000000     0.517000000
O    -1.070000000    -2.766000000     3.513000000
H    -0.423000000    -3.399000000     3.201000000
H    -1.873000000    -2.994000000     3.044000000
O    -2.703000000     0.520000000    -4.620000000
H    -3.095000000     0.748000000    -3.777000000
H    -1.801000000     0.832000000    -4.558000000
O    -4.040000000    -3.168000000     4.322000000
H    -3.789000000    -3.914000000     3.778000000
H    -3.860000000    -3.453000000     5.218000000
O     7.376000000     2.367000000    -2.649000000
H     7.660000000     2.597000000    -1.764000000
H     8.002000000     1.703000000    -2.937000000
O     3.376000000     2.167000000    -2.122000000
H     3.946000000     2.563000000    -1.463000000
H     3.525000000     1.226000000    -2.033000000
O     6.714000000     1.547000000     2.621000000
H     6.600000000     1.307000000     1.701000000
H     5.824000000     1.687000000     2.944000000
O     8.794000000    -0.255000000     0.642000000
H     9.172000000     0.555000000     0.300000000
H     7.853000000    -0.081000000     0.685000000
O     2.014000000    -2.221000000     5.249000000
H     1.228000000    -1.837000000     4.861000000
H     2.647000000    -2.247000000     4.531000000
O     7.674000000    -2.084000000    -1.206000000
H     8.271000000    -2.398000000    -1.884000000
H     8.224000000    -1.983000000    -0.429000000
O    -0.676000000    -1.493000000     5.864000000
H    -0.862000000    -2.138000000     6.547000000
H    -0.931000000    -1.926000000     5.050000000
O    -6.768000000    -2.048000000    -0.989000000
H    -6.712000000    -1.324000000    -1.613000000
H    -6.546000000    -1.655000000    -0.145000000
O     6.843000000     3.170000000     0.314000000
H     5.906000000     3.055000000     0.468000000
H     6.937000000     4.095000000     0.087000000
O     0.564000000    -5.467000000     3.063000000
H     0.243000000    -5.701000000     3.934000000
H     1.033000000    -6.245000000     2.764000000
O    -3.157000000     3.522000000     3.711000000
H    -2.365000000     3.070000000     3.417000000
H    -3.615000000     3.752000000     2.904000000
O     4.170000000     2.760000000     0.662000000
H     3.914000000     3.634000000     0.956000000
H     4.110000000     2.216000000     1.447000000
O     5.952000000     0.300000000     0.210000000
H     5.552000000     0.916000000    -0.403000000
H     5.257000000    -0.328000000     0.407000000
O     1.990000000    -3.919000000     1.333000000
H     2.587000000    -3.593000000     2.006000000
H     1.301000000    -4.369000000     1.821000000
O     1.621000000    -0.908000000    -6.012000000
H     1.685000000    -1.745000000    -6.472000000
H     1.938000000    -1.096000000    -5.128000000
O     5.067000000    -3.478000000    -0.652000000
H     5.784000000    -3.023000000    -1.095000000
H     4.516000000    -2.776000000    -0.306000000
O    -6.682000000     0.419000000    -3.115000000
H    -6.736000000     0.189000000    -4.043000000
H    -5.796000000     0.764000000    -3.005000000
O     0.986000000     4.668000000    -5.376000000
H     1.686000000     4.250000000    -5.877000000
H     0.886000000     4.117000000    -4.599000000
O    -1.501000000     4.966000000     1.099000000
H    -1.482000000     4.454000000     1.907000000
H    -1.406000000     4.318000000     0.402000000
O     3.694000000    -1.405000000     3.024000000
H     3.788000000    -1.409000000     2.071000000
H     3.683000000    -0.477000000     3.260000000
