144
-2801.47727
O     4.985000000    -2.821000000     0.987000000
H     4.446000000    -3.232000000     0.311000000
H     4.656000000    -3.185000000     1.809000000
O     4.085000000    -4.470000000    -5.805000000
H     3.679000000    -5.030000000    -5.144000000
H     4.480000000    -3.756000000    -5.305000000
O     4.842000000    -2.695000000    -3.202000000
H     5.452000000    -1.973000000    -3.355000000
H     4.008000000    -2.268000000    -3.010000000
O     0.826000000     6.157000000     1.062000000
H     1.575000000     6.739000000     0.938000000
H     0.508000000     5.983000000     0.176000000
O    -1.931000000     5.261000000     0.722000000
H    -2.107000000     6.035000000     0.187000000
H    -1.062000000     5.419000000     1.093000000
O    -5.044000000    -0.643000000     3.451000000
H    -4.170000000    -0.872000000     3.766000000
H    -5.596000000    -1.376000000     3.723000000
O    -2.030000000    -4.906000000     0.897000000
H    -1.986000000    -4.256000000     1.599000000
H    -1.129000000    -4.980000000     0.583000000
O     3.328000000     4.040000000    -0.306000000
H     3.189000000     3.244000000     0.206000000
H     4.155000000     3.890000000    -0.763000000
O     7.171000000    -4.394000000    -3.243000000
H     7.424000000    -4.588000000    -4.146000000
H     6.375000000    -3.870000000    -3.325000000
O    -1.477000000    -1.315000000    -4.012000000
H    -0.894000000    -1.911000000    -4.481000000
H    -2.343000000    -1.487000000    -4.382000000
O    -2.842000000     0.110000000    -2.065000000
H    -2.296000000    -0.466000000    -2.600000000
H    -2.228000000     0.530000000    -1.462000000
O    -2.397000000    -1.678000000     4.879000000
H    -2.376000000    -0.831000000     5.324000000
H    -1.476000000    -1.926000000     4.791000000
O     0.205000000     1.289000000     5.910000000
H    -0.713000000     1.034000000     6.011000000
H     0.209000000     2.234000000     6.066000000
O     0.722000000    -2.448000000    -5.590000000
H     1.258000000    -1.851000000    -5.068000000
H     1.131000000    -2.442000000    -6.456000000
O    -4.983000000     1.381000000     5.300000000
H    -5.755000000     1.121000000     5.804000000
H    -5.003000000     0.820000000     4.525000000
O    -5.548000000     6.135000000     0.261000000
H    -5.102000000     5.414000000     0.706000000
H    -5.631000000     6.815000000     0.929000000
O    -5.888000000    -0.332000000    -2.561000000
H    -6.584000000     0.011000000    -2.001000000
H    -5.085000000     0.052000000    -2.209000000
O     0.683000000    -3.402000000     5.521000000
H     1.073000000    -4.105000000     6.041000000
H     1.428000000    -2.869000000     5.241000000
O    -0.843000000     1.512000000    -4.141000000
H    -0.976000000     0.566000000    -4.201000000
H    -0.386000000     1.638000000    -3.310000000
O     4.552000000     1.689000000    -3.942000000
H     4.521000000     2.602000000    -3.658000000
H     4.552000000     1.734000000    -4.898000000
O    -2.689000000     3.054000000    -5.593000000
H    -1.968000000     2.563000000    -5.198000000
H    -3.424000000     2.440000000    -5.595000000
O    -1.123000000    -4.187000000     3.467000000
H    -1.980000000    -4.491000000     3.765000000
H    -0.577000000    -4.202000000     4.252000000
O     6.270000000    -0.402000000     0.450000000
H     5.988000000    -1.219000000     0.863000000
H     5.503000000    -0.105000000    -0.040000000
O     0.723000000    -4.568000000    -3.540000000
H     0.506000000    -3.860000000    -4.147000000
H     1.145000000    -4.129000000    -2.801000000
O    -0.646000000    -7.012000000    -4.290000000
H    -1.488000000    -6.611000000    -4.505000000
H    -0.017000000    -6.293000000    -4.350000000
O     2.597000000     1.802000000     2.373000000
H     2.196000000     1.703000000     1.510000000
H     2.464000000     0.955000000     2.798000000
O     2.687000000    -6.795000000    -2.066000000
H     2.109000000    -6.066000000    -2.291000000
H     2.978000000    -7.140000000    -2.910000000
O    -2.485000000     0.461000000     6.487000000
H    -2.742000000    -0.009000000     7.280000000
H    -3.313000000     0.714000000     6.078000000
O    -2.055000000     5.077000000     6.458000000
H    -1.791000000     4.486000000     5.754000000
H    -2.999000000     5.182000000     6.342000000
O     8.049000000    -1.704000000    -1.413000000
H     7.415000000    -2.032000000    -2.051000000
H     7.541000000    -1.124000000    -0.846000000
O     6.209000000    -0.545000000    -3.726000000
H     5.870000000     0.350000000    -3.700000000
H     7.050000000    -0.469000000    -4.178000000
O     0.708000000    -5.259000000     0.131000000
H     1.063000000    -4.519000000    -0.361000000
H     1.216000000    -5.273000000     0.942000000
O    -4.135000000     2.771000000    -1.668000000
H    -3.607000000     2.045000000    -2.001000000
H    -4.599000000     2.404000000    -0.915000000
O     2.297000000    -0.560000000    -4.311000000
H     3.112000000    -0.123000000    -4.556000000
H     2.460000000    -0.896000000    -3.429000000
O     1.578000000     2.936000000    -5.440000000
H     0.955000000     3.612000000    -5.707000000
H     1.043000000     2.151000000    -5.322000000
O    -0.750000000    -7.316000000    -0.809000000
H    -0.105000000    -8.024000000    -0.801000000
H    -0.251000000    -6.536000000    -0.566000000
O    -4.127000000     4.015000000     2.106000000
H    -3.348000000     4.148000000     1.567000000
H    -4.597000000     3.301000000     1.676000000
O    -6.075000000    -0.513000000     1.110000000
H    -5.749000000    -0.376000000     1.999000000
H    -6.970000000    -0.832000000     1.230000000
O    -3.602000000    -4.341000000     4.702000000
H    -3.480000000    -3.415000000     4.912000000
H    -3.160000000    -4.808000000     5.411000000
O     4.159000000     0.621000000    -1.193000000
H     3.574000000    -0.114000000    -1.373000000
H     4.603000000     0.784000000    -2.026000000
O    -4.622000000    -5.129000000     0.411000000
H    -4.967000000    -4.342000000    -0.012000000
H    -3.675000000    -4.991000000     0.439000000
O     1.857000000    -5.391000000     2.460000000
H     1.761000000    -5.964000000     3.221000000
H     2.619000000    -4.848000000     2.663000000
O    -5.775000000     2.099000000     0.584000000
H    -5.788000000     1.157000000     0.754000000
H    -6.613000000     2.415000000     0.923000000
O     0.469000000     6.121000000    -2.003000000
H    -0.462000000     6.123000000    -2.228000000
H     0.907000000     6.441000000    -2.791000000
O     3.909000000    -4.568000000    -0.710000000
H     3.072000000    -4.319000000    -1.101000000
H     4.010000000    -5.495000000    -0.930000000
O    -2.917000000     4.813000000    -3.151000000
H    -3.063000000     4.089000000    -2.543000000
H    -3.050000000     4.428000000    -4.018000000
O     0.333000000     4.153000000     2.596000000
H     0.668000000     4.944000000     2.173000000
H     1.103000000     3.593000000     2.699000000
O    -1.824000000     3.810000000     3.995000000
H    -1.019000000     3.828000000     3.477000000
H    -2.502000000     3.541000000     3.375000000
