144
-2802.96492
O     6.622000000    -4.081000000     0.027000000
H     5.936000000    -4.629000000     0.410000000
H     7.401000000    -4.275000000     0.548000000
O     0.745000000    -6.191000000    -5.654000000
H     1.491000000    -6.673000000    -5.296000000
H     0.974000000    -5.270000000    -5.532000000
O     2.268000000    -3.631000000    -4.885000000
H     3.119000000    -4.012000000    -4.669000000
H     2.000000000    -3.175000000    -4.088000000
O     1.902000000     1.792000000     3.606000000
H     1.912000000     2.745000000     3.702000000
H     1.948000000     1.646000000     2.662000000
O     2.452000000    -6.009000000    -1.963000000
H     2.527000000    -5.073000000    -1.781000000
H     1.512000000    -6.185000000    -1.932000000
O    -3.733000000     4.799000000    -1.459000000
H    -3.689000000     4.703000000    -0.508000000
H    -4.417000000     5.453000000    -1.603000000
O    -4.987000000    -1.095000000     3.056000000
H    -4.344000000    -1.733000000     3.367000000
H    -5.111000000    -0.500000000     3.795000000
O     3.288000000     2.309000000    -5.668000000
H     3.051000000     1.914000000    -4.829000000
H     4.123000000     1.901000000    -5.897000000
O    -3.882000000    -1.825000000    -2.921000000
H    -3.083000000    -2.112000000    -3.363000000
H    -3.649000000    -1.807000000    -1.993000000
O    -2.797000000    -2.680000000     0.042000000
H    -2.078000000    -3.136000000    -0.393000000
H    -2.367000000    -2.065000000     0.636000000
O    -4.883000000     0.720000000     4.980000000
H    -5.040000000     1.304000000     5.722000000
H    -4.591000000     1.300000000     4.277000000
O    -2.176000000     3.264000000     5.296000000
H    -3.076000000     2.958000000     5.183000000
H    -2.132000000     4.074000000     4.788000000
O    -2.096000000     6.287000000    -3.393000000
H    -2.640000000     6.430000000    -4.168000000
H    -2.558000000     5.610000000    -2.898000000
O     2.059000000     5.662000000    -0.865000000
H     1.453000000     6.332000000    -0.550000000
H     2.536000000     6.086000000    -1.578000000
O     1.762000000     4.661000000     3.713000000
H     1.656000000     5.590000000     3.919000000
H     2.175000000     4.653000000     2.849000000
O    -2.904000000    -2.446000000     4.538000000
H    -2.602000000    -2.965000000     5.283000000
H    -2.102000000    -2.208000000     4.071000000
O     3.356000000     0.469000000     5.496000000
H     3.000000000    -0.417000000     5.571000000
H     3.116000000     0.749000000     4.613000000
O     4.040000000     1.731000000    -1.777000000
H     3.487000000     2.433000000    -2.119000000
H     4.933000000     2.064000000    -1.868000000
O    -1.946000000    -2.573000000    -4.425000000
H    -1.188000000    -2.242000000    -3.943000000
H    -1.978000000    -2.039000000    -5.218000000
O     2.543000000     4.229000000     1.323000000
H     2.300000000     4.636000000     0.491000000
H     2.519000000     3.289000000     1.147000000
O     0.067000000    -7.438000000    -1.976000000
H     0.688000000    -8.163000000    -1.907000000
H    -0.692000000    -7.722000000    -1.467000000
O    -0.128000000    -4.773000000     2.542000000
H     0.678000000    -5.289000000     2.496000000
H    -0.430000000    -4.720000000     1.635000000
O     3.018000000    -7.335000000    -4.277000000
H     2.731000000    -6.899000000    -3.475000000
H     3.942000000    -7.534000000    -4.124000000
O    -1.839000000    -0.569000000     6.555000000
H    -1.287000000     0.161000000     6.275000000
H    -2.529000000    -0.615000000     5.893000000
O    -2.838000000     2.324000000    -2.367000000
H    -2.742000000     3.259000000    -2.186000000
H    -3.164000000     1.954000000    -1.546000000
O     2.615000000    -1.247000000    -6.531000000
H     1.780000000    -1.502000000    -6.137000000
H     3.237000000    -1.264000000    -5.804000000
O     5.039000000    -3.954000000    -4.912000000
H     5.326000000    -4.822000000    -4.626000000
H     5.524000000    -3.346000000    -4.355000000
O    -0.398000000    -4.523000000    -0.209000000
H     0.423000000    -4.070000000    -0.398000000
H    -0.749000000    -4.753000000    -1.070000000
O    -4.166000000     1.663000000    -0.163000000
H    -4.832000000     0.975000000    -0.159000000
H    -4.107000000     1.945000000     0.750000000
O    -2.143000000    -6.591000000     2.277000000
H    -2.195000000    -6.454000000     1.331000000
H    -1.632000000    -5.848000000     2.599000000
O     0.200000000    -0.718000000    -4.975000000
H     0.461000000     0.143000000    -5.301000000
H     0.918000000    -0.985000000    -4.401000000
O     2.467000000     1.531000000     1.017000000
H     1.886000000     0.856000000     0.663000000
H     3.275000000     1.440000000     0.512000000
O    -2.283000000    -4.649000000    -2.722000000
H    -1.748000000    -5.052000000    -3.406000000
H    -2.411000000    -3.748000000    -3.019000000
O     4.596000000    -4.368000000     2.547000000
H     4.554000000    -5.136000000     3.116000000
H     3.823000000    -4.441000000     1.987000000
O    -3.461000000     4.879000000     1.261000000
H    -3.922000000     5.707000000     1.396000000
H    -2.622000000     4.996000000     1.708000000
O     0.251000000     4.697000000    -4.483000000
H    -0.033000000     5.154000000    -3.692000000
H    -0.286000000     5.071000000    -5.182000000
O     3.294000000    -0.312000000    -3.943000000
H     2.644000000    -0.899000000    -3.558000000
H     3.771000000     0.043000000    -3.193000000
O    -2.774000000     0.920000000    -4.471000000
H    -3.114000000     1.540000000    -3.826000000
H    -1.823000000     0.974000000    -4.378000000
O    -0.228000000     2.164000000    -5.253000000
H    -0.983000000     2.443000000    -5.772000000
H     0.238000000     2.976000000    -5.054000000
O     6.406000000    -3.294000000    -2.565000000
H     6.486000000    -3.968000000    -1.890000000
H     6.294000000    -2.479000000    -2.077000000
O     0.578000000     1.100000000     5.779000000
H     1.464000000     0.806000000     5.990000000
H     0.641000000     1.424000000     4.880000000
O    -0.214000000    -2.264000000     4.216000000
H    -0.026000000    -2.960000000     3.587000000
H     0.599000000    -2.164000000     4.712000000
O    -4.517000000     2.247000000     2.529000000
H    -5.451000000     2.330000000     2.338000000
H    -4.156000000     3.112000000     2.337000000
O     2.048000000     3.283000000    -2.887000000
H     1.911000000     4.185000000    -3.178000000
H     1.215000000     3.031000000    -2.488000000
O     2.545000000    -4.762000000     0.871000000
H     2.257000000    -4.273000000     0.100000000
H     2.752000000    -5.635000000     0.537000000
O    -1.216000000     5.814000000     2.206000000
H    -0.448000000     5.367000000     2.561000000
H    -0.871000000     6.628000000     1.838000000
O     5.423000000    -0.908000000    -1.421000000
H     6.167000000    -0.724000000    -0.847000000
H     5.067000000    -0.046000000    -1.636000000
O    -1.534000000    -1.198000000    -6.961000000
H    -1.339000000    -0.382000000    -7.421000000
H    -0.791000000    -1.324000000    -6.371000000
