144
-2782.04951
O     5.726000000     1.101000000     2.887000000
H     4.982000000     1.429000000     2.381000000
H     5.438000000     0.247000000     3.210000000
O     3.817000000    -2.995000000    -0.380000000
H     3.684000000    -2.819000000    -1.312000000
H     3.034000000    -3.476000000    -0.114000000
O    -0.127000000     6.580000000     1.310000000
H    -0.716000000     6.611000000     2.065000000
H     0.136000000     7.490000000     1.174000000
O     3.410000000    -2.121000000    -3.027000000
H     2.696000000    -1.640000000    -3.446000000
H     4.186000000    -1.892000000    -3.539000000
O    -3.268000000     1.395000000    -0.724000000
H    -3.404000000     2.342000000    -0.734000000
H    -2.364000000     1.285000000    -0.431000000
O     1.456000000     1.731000000     5.434000000
H     0.919000000     2.378000000     4.977000000
H     1.369000000     1.958000000     6.360000000
O    -3.001000000     4.830000000    -2.765000000
H    -2.263000000     5.054000000    -2.198000000
H    -3.276000000     5.665000000    -3.143000000
O    -0.219000000    -3.911000000    -4.920000000
H    -0.431000000    -3.319000000    -4.198000000
H     0.699000000    -3.726000000    -5.119000000
O    -3.373000000     1.377000000     3.284000000
H    -3.030000000     2.211000000     2.962000000
H    -4.324000000     1.474000000     3.234000000
O     2.943000000     3.330000000    -1.853000000
H     3.054000000     2.381000000    -1.793000000
H     2.847000000     3.501000000    -2.790000000
O    -0.849000000     3.842000000     5.044000000
H    -0.740000000     4.793000000     5.048000000
H    -1.023000000     3.624000000     4.129000000
O     1.960000000    -3.160000000    -6.602000000
H     2.908000000    -3.201000000    -6.725000000
H     1.789000000    -2.250000000    -6.357000000
O    -0.945000000     5.599000000    -1.241000000
H    -0.139000000     5.415000000    -1.725000000
H    -0.664000000     5.681000000    -0.330000000
O    -4.539000000    -0.833000000    -7.497000000
H    -4.609000000    -1.692000000    -7.914000000
H    -3.972000000    -0.979000000    -6.740000000
O     1.419000000     5.039000000    -4.370000000
H     2.042000000     5.491000000    -3.800000000
H     1.903000000     4.281000000    -4.698000000
O    -1.057000000    -7.463000000    -3.093000000
H    -0.484000000    -6.753000000    -2.801000000
H    -1.259000000    -7.951000000    -2.295000000
O    -3.293000000    -2.836000000    -1.438000000
H    -2.382000000    -2.917000000    -1.720000000
H    -3.237000000    -2.497000000    -0.545000000
O     3.467000000     5.841000000    -0.827000000
H     3.277000000     4.904000000    -0.780000000
H     3.637000000     6.005000000    -1.754000000
O    -3.168000000    -4.377000000    -5.161000000
H    -3.834000000    -4.904000000    -4.719000000
H    -2.383000000    -4.486000000    -4.625000000
O     1.369000000    -4.591000000     0.539000000
H     1.082000000    -4.067000000     1.287000000
H     1.446000000    -5.480000000     0.885000000
O    -4.858000000    -0.818000000     0.281000000
H    -4.817000000    -1.406000000    -0.473000000
H    -4.513000000     0.013000000    -0.045000000
O     1.900000000    -2.243000000     3.111000000
H     1.278000000    -2.925000000     3.362000000
H     2.754000000    -2.590000000     3.369000000
O     3.871000000     0.663000000    -1.481000000
H     3.836000000     0.368000000    -0.571000000
H     3.997000000    -0.139000000    -1.988000000
O     0.423000000    -0.731000000     4.985000000
H     1.013000000    -0.998000000     4.280000000
H     0.688000000     0.165000000     5.192000000
O     1.591000000    -0.914000000    -4.911000000
H     1.983000000    -0.113000000    -5.259000000
H     0.929000000    -0.607000000    -4.292000000
O    -2.649000000    -2.229000000     4.619000000
H    -2.186000000    -1.532000000     4.156000000
H    -3.382000000    -1.787000000     5.048000000
O     2.950000000     3.124000000    -5.376000000
H     3.265000000     2.239000000    -5.558000000
H     3.308000000     3.657000000    -6.086000000
O    -0.460000000     1.485000000    -5.980000000
H    -1.048000000     2.143000000    -5.608000000
H    -0.303000000     0.871000000    -5.262000000
O     1.817000000     4.307000000     1.165000000
H     1.878000000     4.098000000     2.098000000
H     1.379000000     5.158000000     1.139000000
O     0.618000000    -5.254000000    -2.040000000
H     0.250000000    -4.442000000    -2.387000000
H     1.184000000    -4.973000000    -1.322000000
O    -5.141000000    -1.351000000    -3.175000000
H    -4.547000000    -0.705000000    -3.558000000
H    -4.566000000    -2.053000000    -2.869000000
O     4.804000000     4.577000000     3.230000000
H     4.318000000     5.328000000     2.888000000
H     4.383000000     3.816000000     2.831000000
O    -3.451000000     2.203000000     6.176000000
H    -2.705000000     2.124000000     6.770000000
H    -3.147000000     1.809000000     5.357000000
O    -0.058000000    -4.263000000     3.212000000
H    -0.997000000    -4.079000000     3.224000000
H     0.017000000    -5.147000000     3.571000000
O    -0.719000000    -3.413000000    -7.913000000
H     0.216000000    -3.588000000    -7.804000000
H    -1.123000000    -3.770000000    -7.122000000
O     3.779000000     2.219000000     1.386000000
H     3.486000000     1.329000000     1.193000000
H     3.161000000     2.781000000     0.919000000
O    -2.925000000    -1.361000000    -5.203000000
H    -2.766000000    -2.239000000    -4.857000000
H    -2.107000000    -0.889000000    -5.046000000
O    -1.275000000    -1.636000000     7.059000000
H    -1.318000000    -2.552000000     6.786000000
H    -1.049000000    -1.158000000     6.260000000
O    -2.812000000     1.544000000    -3.436000000
H    -2.048000000     0.970000000    -3.375000000
H    -3.227000000     1.483000000    -2.575000000
O     3.422000000    -0.626000000     1.319000000
H     2.775000000    -0.873000000     1.979000000
H     3.444000000    -1.369000000     0.715000000
O    -1.119000000     4.367000000    -4.889000000
H    -0.197000000     4.484000000    -4.660000000
H    -1.599000000     4.752000000    -4.156000000
O    -3.538000000    -3.742000000     2.331000000
H    -3.105000000    -2.969000000     2.693000000
H    -4.467000000    -3.606000000     2.519000000
O     4.197000000     0.943000000     5.809000000
H     3.314000000     0.991000000     5.444000000
H     4.386000000     0.006000000     5.858000000
O    -4.160000000    -5.539000000    -2.880000000
H    -4.079000000    -4.601000000    -2.707000000
H    -4.348000000    -5.925000000    -2.024000000
O    -2.772000000     3.712000000     2.360000000
H    -2.803000000     4.642000000     2.586000000
H    -2.887000000     3.693000000     1.410000000
O     2.525000000    -5.796000000    -4.261000000
H     2.223000000    -5.667000000    -3.362000000
H     3.317000000    -6.326000000    -4.174000000
O    -3.610000000     1.882000000    -5.854000000
H    -3.219000000     1.391000000    -5.132000000
H    -4.121000000     1.231000000    -6.336000000
O     2.001000000     4.009000000     4.012000000
H     2.218000000     3.869000000     4.933000000
H     1.838000000     4.950000000     3.944000000
