144
-2808.54365
O     3.077000000     4.677000000     1.835000000
H     3.645000000     4.844000000     1.083000000
H     2.769000000     3.779000000     1.708000000
O     0.833000000     6.982000000     1.787000000
H     0.500000000     7.465000000     2.543000000
H     1.540000000     6.442000000     2.140000000
O     4.652000000    -4.309000000    -2.846000000
H     4.328000000    -3.851000000    -2.070000000
H     4.810000000    -3.615000000    -3.485000000
O    -4.850000000    -2.956000000    -2.452000000
H    -4.576000000    -2.912000000    -1.536000000
H    -4.076000000    -3.269000000    -2.920000000
O    -0.790000000     5.063000000     5.807000000
H    -0.025000000     5.118000000     6.380000000
H    -0.430000000     5.104000000     4.921000000
O    -3.649000000     4.965000000     0.233000000
H    -3.276000000     5.684000000     0.742000000
H    -2.890000000     4.465000000    -0.068000000
O     2.847000000    -3.916000000    -0.078000000
H     2.086000000    -3.845000000    -0.654000000
H     2.497000000    -3.772000000     0.801000000
O     4.648000000     3.719000000    -2.575000000
H     5.512000000     3.901000000    -2.943000000
H     4.573000000     2.765000000    -2.600000000
O     0.448000000     2.840000000    -3.999000000
H    -0.030000000     2.179000000    -3.498000000
H     0.349000000     3.644000000    -3.489000000
O    -1.287000000    -8.216000000     0.845000000
H    -1.037000000    -7.310000000     1.026000000
H    -1.910000000    -8.436000000     1.538000000
O    -4.817000000     2.028000000     3.656000000
H    -4.027000000     2.115000000     4.189000000
H    -5.406000000     2.705000000     3.989000000
O    -4.418000000    -4.890000000     2.186000000
H    -3.899000000    -5.373000000     1.543000000
H    -3.806000000    -4.253000000     2.557000000
O    -4.013000000     5.331000000     3.756000000
H    -3.150000000     5.181000000     3.371000000
H    -4.578000000     5.525000000     3.008000000
O    -4.358000000     2.250000000     1.117000000
H    -4.300000000     2.034000000     2.048000000
H    -3.970000000     3.123000000     1.049000000
O     0.105000000     5.571000000    -0.905000000
H    -0.633000000     6.073000000    -1.251000000
H     0.366000000     6.043000000    -0.114000000
O    -1.810000000    -1.627000000    -3.674000000
H    -2.345000000    -2.356000000    -3.988000000
H    -1.009000000    -2.040000000    -3.350000000
O     1.776000000    -8.757000000    -1.839000000
H     1.350000000    -8.040000000    -1.369000000
H     2.593000000    -8.378000000    -2.164000000
O     2.350000000     5.517000000    -2.752000000
H     1.682000000     5.311000000    -2.099000000
H     2.844000000     4.703000000    -2.855000000
O    -2.866000000    -3.573000000    -0.260000000
H    -1.924000000    -3.435000000    -0.161000000
H    -2.956000000    -4.515000000    -0.405000000
O    -4.656000000     1.153000000    -1.353000000
H    -4.633000000     0.238000000    -1.073000000
H    -4.543000000     1.654000000    -0.545000000
O    -3.364000000    -6.117000000    -0.730000000
H    -2.723000000    -6.590000000    -1.262000000
H    -4.212000000    -6.447000000    -1.027000000
O     2.138000000    -3.984000000     2.577000000
H     2.668000000    -3.855000000     3.364000000
H     1.357000000    -4.441000000     2.887000000
O    -2.077000000    -3.787000000     3.374000000
H    -1.577000000    -4.513000000     3.747000000
H    -2.502000000    -3.377000000     4.126000000
O    -4.742000000    -1.483000000     0.288000000
H    -4.836000000    -1.330000000     1.228000000
H    -4.113000000    -2.201000000     0.223000000
O    -1.697000000     6.701000000     1.186000000
H    -1.934000000     7.275000000     0.458000000
H    -0.843000000     7.021000000     1.475000000
O    -1.398000000     1.048000000    -3.124000000
H    -2.018000000     1.337000000    -2.455000000
H    -1.472000000     0.094000000    -3.124000000
O     3.122000000     1.732000000     1.699000000
H     2.477000000     1.332000000     1.116000000
H     2.755000000     1.619000000     2.576000000
O     0.391000000    -2.746000000     6.160000000
H     1.218000000    -2.874000000     6.624000000
H     0.627000000    -2.237000000     5.385000000
O     4.902000000     1.094000000    -2.603000000
H     5.458000000     0.385000000    -2.280000000
H     4.875000000     0.964000000    -3.551000000
O    -0.853000000    -0.511000000    -6.008000000
H    -0.009000000    -0.133000000    -5.759000000
H    -1.214000000    -0.850000000    -5.189000000
O    -1.226000000     2.308000000     4.625000000
H    -1.569000000     1.415000000     4.649000000
H    -0.794000000     2.421000000     5.472000000
O     1.593000000    -2.549000000    -4.959000000
H     1.648000000    -1.612000000    -5.144000000
H     1.104000000    -2.603000000    -4.138000000
O     1.414000000     1.804000000     3.868000000
H     0.473000000     1.881000000     4.028000000
H     1.820000000     2.060000000     4.696000000
O     1.070000000    -1.086000000     4.138000000
H     1.038000000    -0.139000000     3.997000000
H     0.896000000    -1.462000000     3.275000000
O     3.087000000    -4.409000000    -6.211000000
H     2.551000000    -3.785000000    -5.721000000
H     3.978000000    -4.257000000    -5.898000000
O     5.248000000    -3.041000000    -0.084000000
H     5.508000000    -3.166000000     0.829000000
H     4.341000000    -3.343000000    -0.118000000
O     1.793000000     5.369000000     4.093000000
H     2.362000000     5.073000000     3.383000000
H     2.396000000     5.654000000     4.780000000
O     1.517000000     0.613000000    -5.570000000
H     2.148000000     0.956000000    -6.203000000
H     1.491000000     1.272000000    -4.877000000
O    -0.716000000    -5.360000000     1.216000000
H    -0.167000000    -4.704000000     0.786000000
H    -1.504000000    -4.881000000     1.475000000
O    -0.550000000    -5.847000000    -3.010000000
H    -0.218000000    -5.115000000    -2.490000000
H     0.187000000    -6.101000000    -3.565000000
O    -2.711000000    -4.091000000    -3.998000000
H    -1.863000000    -4.437000000    -3.717000000
H    -3.011000000    -4.707000000    -4.666000000
O    -5.405000000    -0.535000000     3.462000000
H    -5.362000000     0.421000000     3.462000000
H    -6.338000000    -0.732000000     3.378000000
O    -1.494000000    -0.811000000     5.829000000
H    -1.691000000    -0.393000000     6.668000000
H    -0.767000000    -1.404000000     6.022000000
O     5.560000000     1.534000000     0.199000000
H     5.548000000     1.402000000    -0.749000000
H     4.639000000     1.493000000     0.458000000
O    -3.772000000    -2.189000000     4.890000000
H    -2.920000000    -1.784000000     5.051000000
H    -4.343000000    -1.459000000     4.648000000
O    -1.637000000     4.575000000     2.836000000
H    -0.894000000     3.997000000     3.012000000
H    -1.281000000     5.258000000     2.268000000
O     1.644000000    -6.750000000     0.481000000
H     2.057000000    -5.896000000     0.358000000
H     0.819000000    -6.556000000     0.927000000
O    -3.242000000     3.798000000     5.906000000
H    -2.402000000     4.250000000     5.983000000
H    -3.781000000     4.383000000     5.374000000
