144
-2789.48765
O    -2.520000000    -3.754000000    -6.323000000
H    -2.657000000    -4.189000000    -7.165000000
H    -1.696000000    -4.116000000    -5.998000000
O     5.317000000     3.019000000    -1.485000000
H     4.902000000     2.383000000    -2.067000000
H     5.058000000     2.743000000    -0.605000000
O    -4.073000000     1.282000000    -2.501000000
H    -4.484000000     1.177000000    -1.643000000
H    -3.151000000     1.074000000    -2.352000000
O     3.049000000     6.456000000     1.829000000
H     3.155000000     7.210000000     1.248000000
H     2.107000000     6.292000000     1.839000000
O    -3.070000000    -6.914000000    -0.667000000
H    -3.159000000    -7.470000000    -1.441000000
H    -2.393000000    -7.341000000    -0.143000000
O     5.700000000    -3.062000000    -2.127000000
H     6.273000000    -3.661000000    -2.606000000
H     4.843000000    -3.487000000    -2.143000000
O     1.020000000     3.706000000     7.307000000
H     1.153000000     3.002000000     6.673000000
H     0.225000000     3.457000000     7.778000000
O    -5.746000000    -3.190000000     1.797000000
H    -5.316000000    -4.034000000     1.655000000
H    -6.081000000    -3.239000000     2.693000000
O    -0.320000000     5.854000000     6.019000000
H     0.002000000     4.953000000     6.000000000
H     0.347000000     6.338000000     6.506000000
O    -5.447000000    -4.139000000    -2.524000000
H    -4.590000000    -3.982000000    -2.919000000
H    -5.288000000    -4.817000000    -1.867000000
O     1.575000000    -3.291000000    -7.143000000
H     1.505000000    -2.362000000    -7.361000000
H     0.891000000    -3.436000000    -6.490000000
O     1.254000000    -5.778000000    -0.257000000
H     0.779000000    -5.604000000    -1.069000000
H     0.763000000    -5.305000000     0.415000000
O     1.155000000     1.357000000     5.592000000
H     1.708000000     1.123000000     4.847000000
H     1.570000000     0.931000000     6.342000000
O     5.365000000    -0.394000000    -2.061000000
H     5.529000000    -1.311000000    -2.281000000
H     5.093000000    -0.413000000    -1.143000000
O    -4.040000000     1.526000000     4.718000000
H    -3.097000000     1.359000000     4.745000000
H    -4.383000000     0.864000000     4.118000000
O     2.045000000    -2.741000000     0.526000000
H     2.634000000    -2.597000000     1.267000000
H     1.547000000    -1.926000000     0.453000000
O    -0.922000000     0.551000000    -4.188000000
H    -0.138000000     0.008000000    -4.108000000
H    -1.365000000     0.218000000    -4.969000000
O     5.128000000    -1.146000000     0.805000000
H     5.310000000    -2.056000000     0.572000000
H     5.833000000    -0.907000000     1.407000000
O    -6.335000000    -1.761000000    -0.326000000
H    -6.050000000    -2.324000000    -1.047000000
H    -6.032000000    -2.210000000     0.463000000
O    -6.604000000     2.781000000     0.318000000
H    -6.151000000     1.961000000     0.512000000
H    -5.952000000     3.312000000    -0.140000000
O    -1.062000000    -5.383000000    -1.654000000
H    -1.976000000    -5.612000000    -1.485000000
H    -1.071000000    -4.433000000    -1.771000000
O    -2.132000000     3.227000000    -0.595000000
H    -2.803000000     3.442000000     0.053000000
H    -1.458000000     2.765000000    -0.098000000
O    -0.196000000    -8.013000000    -2.113000000
H     0.071000000    -8.237000000    -1.222000000
H    -0.488000000    -7.104000000    -2.054000000
O    -2.561000000     4.893000000     1.917000000
H    -2.481000000     5.209000000     2.817000000
H    -1.838000000     5.312000000     1.450000000
O    -1.571000000     3.161000000    -3.172000000
H    -1.294000000     2.302000000    -3.491000000
H    -1.766000000     3.021000000    -2.245000000
O    -1.442000000     1.262000000     5.480000000
H    -0.516000000     1.438000000     5.314000000
H    -1.463000000     0.355000000     5.783000000
O     2.500000000     3.953000000    -4.435000000
H     2.466000000     3.234000000    -3.804000000
H     1.668000000     4.411000000    -4.322000000
O     2.934000000    -3.448000000    -2.016000000
H     3.056000000    -3.287000000    -1.080000000
H     2.086000000    -3.054000000    -2.219000000
O     3.640000000     1.321000000    -3.068000000
H     4.305000000     0.687000000    -2.800000000
H     3.026000000     0.815000000    -3.599000000
O     3.427000000     0.213000000     4.124000000
H     4.210000000    -0.338000000     4.137000000
H     3.675000000     0.970000000     3.595000000
O     1.027000000    -1.657000000     3.285000000
H     1.818000000    -2.184000000     3.401000000
H     1.351000000    -0.769000000     3.132000000
O     4.600000000     1.585000000     0.897000000
H     4.896000000     0.682000000     1.013000000
H     4.194000000     1.813000000     1.733000000
O    -1.670000000    -0.926000000    -6.441000000
H    -2.395000000    -0.699000000    -7.022000000
H    -1.556000000    -1.870000000    -6.558000000
O    -1.116000000     7.009000000     0.639000000
H    -0.740000000     7.080000000    -0.238000000
H    -0.549000000     7.553000000     1.187000000
O     4.188000000     2.727000000     3.497000000
H     4.261000000     3.649000000     3.251000000
H     4.406000000     2.710000000     4.429000000
O    -0.116000000    -4.388000000    -4.967000000
H    -0.046000000    -3.950000000    -4.119000000
H     0.096000000    -5.303000000    -4.781000000
O     4.091000000    -2.059000000    -5.060000000
H     3.795000000    -2.962000000    -5.172000000
H     4.987000000    -2.140000000    -4.733000000
O    -4.946000000     0.606000000     0.154000000
H    -5.539000000    -0.052000000    -0.210000000
H    -4.544000000     0.174000000     0.908000000
O    -0.474000000    -3.850000000     1.306000000
H     0.135000000    -3.346000000     0.767000000
H    -0.961000000    -3.190000000     1.799000000
O    -3.494000000    -2.272000000    -4.071000000
H    -2.966000000    -2.767000000    -3.444000000
H    -3.136000000    -2.510000000    -4.926000000
O    -3.952000000    -1.279000000     1.761000000
H    -4.408000000    -2.119000000     1.707000000
H    -3.083000000    -1.498000000     2.095000000
O    -1.857000000     2.723000000     7.790000000
H    -1.570000000     2.341000000     6.961000000
H    -2.800000000     2.556000000     7.817000000
O     3.485000000    -4.526000000    -5.908000000
H     2.631000000    -4.358000000    -6.307000000
H     3.544000000    -5.480000000    -5.862000000
O    -1.756000000    -1.990000000     2.965000000
H    -1.897000000    -2.646000000     3.648000000
H    -0.860000000    -1.686000000     3.107000000
O     5.909000000     4.370000000     2.041000000
H     5.326000000     4.046000000     1.354000000
H     6.540000000     4.922000000     1.579000000
O     4.654000000    -5.403000000    -3.284000000
H     4.305000000    -6.197000000    -3.690000000
H     4.156000000    -4.691000000    -3.685000000
O     1.202000000     1.593000000    -6.069000000
H     1.028000000     1.263000000    -5.188000000
H     2.148000000     1.496000000    -6.179000000
O     1.418000000    -1.068000000    -4.559000000
H     2.157000000    -1.492000000    -4.997000000
H     0.917000000    -1.791000000    -4.182000000
