144
-2830.49519
O     4.123000000    -5.030000000    -1.899000000
H     4.008000000    -4.204000000    -2.369000000
H     3.957000000    -4.808000000    -0.982000000
O     7.056000000    -2.893000000    -0.776000000
H     6.662000000    -2.774000000     0.088000000
H     6.426000000    -2.502000000    -1.382000000
O    -1.756000000     0.211000000    -5.172000000
H    -2.107000000    -0.289000000    -4.435000000
H    -1.283000000    -0.436000000    -5.696000000
O     2.666000000     4.027000000     3.346000000
H     1.898000000     4.222000000     3.884000000
H     2.857000000     4.848000000     2.893000000
O    -2.144000000    -6.607000000    -2.960000000
H    -1.236000000    -6.307000000    -2.991000000
H    -2.653000000    -5.865000000    -3.287000000
O    -4.835000000    -0.277000000    -1.819000000
H    -4.524000000     0.167000000    -1.030000000
H    -4.673000000    -1.205000000    -1.651000000
O    -0.025000000     1.004000000     5.851000000
H    -0.037000000     0.077000000     6.091000000
H     0.847000000     1.144000000     5.481000000
O     4.674000000     3.103000000    -2.703000000
H     5.107000000     3.391000000    -1.900000000
H     4.785000000     2.153000000    -2.708000000
O     2.869000000     6.428000000     1.754000000
H     3.522000000     6.269000000     1.073000000
H     2.034000000     6.205000000     1.343000000
O    -5.232000000     4.712000000     0.833000000
H    -4.311000000     4.472000000     0.729000000
H    -5.228000000     5.669000000     0.867000000
O     0.841000000     4.605000000     5.250000000
H     0.000000000     4.174000000     5.400000000
H     1.117000000     4.901000000     6.117000000
O    -4.025000000    -2.814000000    -1.509000000
H    -3.132000000    -2.641000000    -1.810000000
H    -3.917000000    -3.417000000    -0.774000000
O     0.104000000    -2.427000000     2.029000000
H     0.644000000    -3.110000000     2.426000000
H     0.641000000    -1.637000000     2.078000000
O     1.015000000    -6.106000000    -5.261000000
H     1.273000000    -7.027000000    -5.275000000
H     0.574000000    -5.993000000    -4.419000000
O     2.321000000    -0.986000000     3.439000000
H     2.872000000    -1.571000000     2.919000000
H     2.801000000    -0.158000000     3.456000000
O     5.706000000    -1.810000000    -2.727000000
H     4.784000000    -2.020000000    -2.581000000
H     5.994000000    -2.443000000    -3.385000000
O    -4.558000000    -0.504000000     2.754000000
H    -3.802000000    -1.058000000     2.945000000
H    -4.327000000     0.350000000     3.119000000
O     3.242000000    -3.564000000     0.668000000
H     3.114000000    -3.777000000     1.593000000
H     3.722000000    -2.736000000     0.677000000
O    -4.278000000     1.586000000    -5.962000000
H    -3.435000000     1.152000000    -5.827000000
H    -4.688000000     1.587000000    -5.097000000
O     0.099000000    -2.025000000     5.461000000
H     0.896000000    -2.017000000     4.930000000
H     0.282000000    -2.656000000     6.157000000
O    -6.961000000     2.703000000     0.705000000
H    -6.328000000     1.986000000     0.677000000
H    -6.428000000     3.489000000     0.823000000
O     0.148000000     6.764000000     2.231000000
H    -0.730000000     6.550000000     2.546000000
H     0.228000000     7.708000000     2.369000000
O    -1.244000000    -3.743000000    -5.153000000
H    -1.320000000    -2.967000000    -4.598000000
H    -0.415000000    -4.145000000    -4.891000000
O    -5.629000000     1.845000000    -3.370000000
H    -5.392000000     1.099000000    -2.819000000
H    -6.541000000     2.029000000    -3.144000000
O     0.388000000     4.064000000    -0.366000000
H     0.482000000     3.382000000    -1.031000000
H     0.519000000     3.607000000     0.465000000
O    -3.151000000     4.773000000     3.032000000
H    -2.908000000     5.668000000     3.269000000
H    -2.592000000     4.562000000     2.284000000
O    -3.941000000     2.084000000     3.512000000
H    -3.488000000     1.757000000     4.289000000
H    -3.752000000     3.022000000     3.501000000
O    -0.171000000     2.295000000    -2.555000000
H     0.033000000     1.365000000    -2.655000000
H    -1.117000000     2.318000000    -2.412000000
O    -0.421000000    -1.402000000    -6.889000000
H    -0.118000000    -1.018000000    -7.712000000
H    -0.091000000    -2.301000000    -6.909000000
O     2.173000000     3.835000000    -3.546000000
H     1.557000000     3.244000000    -3.115000000
H     3.031000000     3.436000000    -3.400000000
O    -4.609000000     1.086000000     0.480000000
H    -4.091000000     1.791000000     0.868000000
H    -4.402000000     0.316000000     1.009000000
O     3.220000000    -2.496000000    -2.925000000
H     3.533000000    -2.683000000    -3.810000000
H     2.267000000    -2.477000000    -3.007000000
O     1.989000000    -0.318000000    -4.635000000
H     1.994000000    -0.362000000    -5.591000000
H     1.440000000    -1.053000000    -4.364000000
O     4.402000000    -1.053000000     1.189000000
H     5.327000000    -1.010000000     1.435000000
H     4.148000000    -0.141000000     1.052000000
O     0.925000000    -3.940000000    -0.492000000
H     1.822000000    -4.023000000    -0.168000000
H     0.539000000    -3.250000000     0.047000000
O    -1.927000000    -4.341000000    -7.690000000
H    -2.610000000    -3.699000000    -7.882000000
H    -1.790000000    -4.270000000    -6.745000000
O     4.367000000     0.514000000    -3.350000000
H     3.455000000     0.338000000    -3.581000000
H     4.804000000    -0.333000000    -3.439000000
O     3.738000000     1.389000000     3.326000000
H     3.489000000     2.313000000     3.328000000
H     4.445000000     1.329000000     3.969000000
O    -2.679000000     1.500000000     5.936000000
H    -2.422000000     2.385000000     6.194000000
H    -1.851000000     1.038000000     5.805000000
O    -6.340000000    -1.789000000     1.094000000
H    -7.050000000    -2.090000000     1.661000000
H    -5.742000000    -1.328000000     1.683000000
O     0.221000000    -4.937000000    -2.852000000
H    -0.190000000    -4.123000000    -3.141000000
H     0.500000000    -4.758000000    -1.954000000
O    -6.046000000    -2.358000000    -3.679000000
H    -6.713000000    -2.100000000    -3.044000000
H    -5.292000000    -2.611000000    -3.145000000
O    -3.568000000    -4.166000000     2.928000000
H    -3.616000000    -4.658000000     2.109000000
H    -3.030000000    -3.403000000     2.718000000
O    -3.320000000     3.127000000    -1.950000000
H    -3.241000000     3.977000000    -2.383000000
H    -4.093000000     2.726000000    -2.348000000
O    -2.385000000     4.049000000     0.400000000
H    -1.670000000     4.602000000     0.084000000
H    -2.759000000     3.666000000    -0.394000000
O    -1.876000000    -1.875000000     3.743000000
H    -1.257000000    -1.825000000     3.014000000
H    -1.324000000    -1.919000000     4.523000000
O     1.261000000    -3.544000000    -6.532000000
H     1.311000000    -4.491000000    -6.398000000
H     2.052000000    -3.202000000    -6.117000000
O     3.858000000    -3.313000000    -5.812000000
H     4.771000000    -3.246000000    -5.532000000
H     3.897000000    -3.779000000    -6.647000000
