144
-2789.94257
O    -8.434000000    -1.156000000     1.386000000
H    -7.514000000    -0.928000000     1.254000000
H    -8.842000000    -1.016000000     0.531000000
O    -1.928000000     4.551000000    -1.553000000
H    -1.221000000     3.985000000    -1.244000000
H    -1.852000000     4.531000000    -2.507000000
O    -6.608000000     3.471000000    -0.626000000
H    -7.305000000     3.991000000    -1.027000000
H    -7.054000000     2.947000000     0.040000000
O     2.115000000     4.156000000    -2.841000000
H     1.505000000     4.784000000    -3.228000000
H     2.157000000     3.441000000    -3.475000000
O    -5.432000000    -1.158000000     1.281000000
H    -5.738000000    -1.533000000     0.455000000
H    -4.641000000    -1.653000000     1.490000000
O    -4.143000000    -1.380000000    -2.224000000
H    -4.299000000    -0.457000000    -2.423000000
H    -4.862000000    -1.624000000    -1.641000000
O     2.097000000     4.729000000     1.047000000
H     2.549000000     5.036000000     1.833000000
H     1.670000000     3.917000000     1.317000000
O    -5.247000000    -4.023000000     2.607000000
H    -4.849000000    -4.813000000     2.975000000
H    -4.608000000    -3.707000000     1.969000000
O    -5.178000000     1.330000000     2.714000000
H    -5.580000000     0.713000000     2.101000000
H    -4.472000000     0.832000000     3.126000000
O    -1.652000000    -2.746000000     4.040000000
H    -2.238000000    -3.023000000     4.744000000
H    -0.937000000    -3.383000000     4.060000000
O    -3.392000000    -0.433000000     4.200000000
H    -2.792000000     0.167000000     4.644000000
H    -2.831000000    -1.138000000     3.879000000
O     6.778000000    -1.159000000    -2.876000000
H     7.624000000    -0.875000000    -2.529000000
H     6.294000000    -0.346000000    -3.022000000
O    -1.410000000    -2.543000000    -1.349000000
H    -0.728000000    -1.902000000    -1.548000000
H    -2.199000000    -2.188000000    -1.758000000
O     5.776000000    -2.478000000     0.175000000
H     4.996000000    -1.942000000     0.033000000
H     5.820000000    -2.592000000     1.125000000
O     4.406000000    -2.855000000    -2.758000000
H     5.205000000    -2.401000000    -3.025000000
H     3.799000000    -2.153000000    -2.524000000
O     2.332000000     1.854000000    -4.860000000
H     3.232000000     1.839000000    -5.186000000
H     2.118000000     0.935000000    -4.703000000
O     4.992000000    -5.387000000    -2.811000000
H     4.622000000    -4.575000000    -2.464000000
H     5.306000000    -5.153000000    -3.685000000
O     3.184000000    -3.973000000     0.088000000
H     3.601000000    -3.205000000    -0.300000000
H     3.671000000    -4.126000000     0.898000000
O    -2.932000000    -2.545000000     1.390000000
H    -2.427000000    -2.277000000     0.622000000
H    -2.283000000    -2.620000000     2.089000000
O    -0.054000000    -3.960000000     0.675000000
H    -0.361000000    -3.719000000    -0.199000000
H     0.797000000    -4.372000000     0.524000000
O     1.853000000     1.721000000     4.099000000
H     2.383000000     1.387000000     3.376000000
H     1.577000000     0.937000000     4.575000000
O    -5.397000000    -2.122000000     5.430000000
H    -4.961000000    -1.370000000     5.030000000
H    -6.113000000    -2.332000000     4.829000000
O    -0.441000000    -0.786000000     5.436000000
H    -0.502000000    -1.351000000     6.206000000
H    -0.708000000    -1.347000000     4.707000000
O    -4.602000000     3.721000000    -3.719000000
H    -5.522000000     3.985000000    -3.742000000
H    -4.251000000     4.145000000    -2.936000000
O    -2.458000000     0.210000000    -4.525000000
H    -2.215000000     0.383000000    -3.615000000
H    -2.694000000    -0.718000000    -4.537000000
O    -1.701000000     4.873000000    -4.386000000
H    -2.622000000     4.913000000    -4.641000000
H    -1.373000000     4.073000000    -4.796000000
O     1.823000000    -0.757000000    -4.233000000
H     2.237000000    -0.554000000    -3.394000000
H     2.529000000    -1.124000000    -4.766000000
O     5.327000000     2.574000000     2.931000000
H     6.089000000     2.072000000     2.643000000
H     4.586000000     1.984000000     2.793000000
O     3.627000000     0.514000000     2.517000000
H     3.277000000     0.228000000     1.673000000
H     4.268000000    -0.157000000     2.750000000
O     4.932000000     1.966000000    -5.549000000
H     5.595000000     1.328000000    -5.813000000
H     4.957000000     1.955000000    -4.592000000
O     7.125000000    -4.646000000    -1.195000000
H     6.504000000    -4.719000000    -1.920000000
H     6.730000000    -4.005000000    -0.605000000
O     8.203000000    -1.785000000     0.964000000
H     7.348000000    -2.041000000     0.618000000
H     8.833000000    -2.263000000     0.425000000
O     2.339000000    -1.192000000     4.429000000
H     1.430000000    -1.161000000     4.725000000
H     2.854000000    -1.207000000     5.236000000
O    -6.933000000     2.402000000     4.424000000
H    -6.249000000     2.193000000     3.787000000
H    -6.602000000     3.172000000     4.887000000
O    -4.445000000     3.726000000     1.600000000
H    -4.780000000     3.589000000     0.714000000
H    -4.648000000     2.913000000     2.062000000
O     5.128000000     4.102000000    -1.643000000
H     4.193000000     4.296000000    -1.580000000
H     5.190000000     3.164000000    -1.463000000
O    -0.719000000     2.534000000    -5.361000000
H     0.226000000     2.566000000    -5.212000000
H    -0.975000000     1.654000000    -5.084000000
O     0.369000000     3.565000000    -0.948000000
H     1.199000000     3.667000000    -1.413000000
H     0.498000000     2.798000000    -0.391000000
O    -6.642000000    -1.733000000    -1.153000000
H    -6.925000000    -2.533000000    -1.596000000
H    -7.267000000    -1.067000000    -1.438000000
O     4.896000000     1.222000000    -2.750000000
H     5.308000000     1.273000000    -1.888000000
H     4.122000000     0.676000000    -2.614000000
O     3.665000000    -4.069000000     3.221000000
H     3.065000000    -3.335000000     3.350000000
H     3.348000000    -4.745000000     3.819000000
O     3.566000000    -1.549000000    -6.154000000
H     4.294000000    -2.115000000    -5.897000000
H     3.654000000    -1.463000000    -7.103000000
O     5.835000000     1.270000000    -0.284000000
H     6.383000000     1.065000000     0.474000000
H     5.233000000     0.529000000    -0.351000000
O    -4.709000000     1.050000000    -3.015000000
H    -4.811000000     1.951000000    -3.323000000
H    -5.109000000     0.516000000    -3.701000000
O    -2.061000000     2.707000000     4.680000000
H    -1.340000000     3.307000000     4.487000000
H    -2.846000000     3.251000000     4.627000000
O     0.486000000     2.307000000     1.795000000
H     0.524000000     1.372000000     1.598000000
H     0.482000000     2.351000000     2.752000000
O     7.671000000     1.364000000     2.106000000
H     8.581000000     1.453000000     2.389000000
H     7.534000000     0.419000000     2.036000000
O    -0.271000000    -2.498000000    -5.251000000
H     0.127000000    -1.842000000    -4.678000000
H     0.000000000    -3.337000000    -4.879000000
