144
-2857.13900
O    -0.776000000    -0.273000000     6.171000000
H    -1.372000000    -0.905000000     6.574000000
H    -0.746000000     0.456000000     6.791000000
O     4.383000000     0.021000000     2.426000000
H     4.251000000    -0.709000000     1.821000000
H     4.750000000    -0.383000000     3.212000000
O    -3.786000000    -2.969000000    -0.176000000
H    -4.461000000    -3.210000000     0.459000000
H    -3.847000000    -2.016000000    -0.239000000
O     0.885000000    -2.495000000     7.127000000
H     0.706000000    -1.924000000     7.874000000
H     0.680000000    -1.960000000     6.361000000
O     5.274000000    -0.257000000    -3.895000000
H     4.729000000    -0.004000000    -4.640000000
H     4.778000000     0.027000000    -3.128000000
O    -2.303000000     1.871000000    -6.105000000
H    -2.414000000     2.166000000    -5.201000000
H    -1.373000000     2.003000000    -6.288000000
O     3.689000000    -2.204000000     0.758000000
H     4.198000000    -2.222000000    -0.053000000
H     2.812000000    -2.484000000     0.496000000
O     0.494000000     5.236000000    -4.416000000
H     1.443000000     5.177000000    -4.532000000
H     0.139000000     5.158000000    -5.301000000
O    -4.037000000    -4.174000000    -2.587000000
H    -4.931000000    -3.946000000    -2.841000000
H    -3.938000000    -3.813000000    -1.706000000
O     7.979000000     0.137000000    -1.905000000
H     7.983000000    -0.730000000    -2.310000000
H     7.097000000     0.473000000    -2.066000000
O    -2.906000000    -5.246000000     4.958000000
H    -3.744000000    -5.554000000     4.613000000
H    -2.512000000    -4.763000000     4.231000000
O    -3.316000000     2.659000000     4.353000000
H    -3.276000000     3.430000000     3.787000000
H    -2.551000000     2.741000000     4.923000000
O     6.402000000     2.021000000     0.584000000
H     7.193000000     2.031000000     1.124000000
H     5.726000000     2.405000000     1.142000000
O     6.416000000     2.661000000    -2.142000000
H     6.352000000     2.405000000    -1.222000000
H     7.252000000     3.123000000    -2.205000000
O    -6.050000000     0.577000000     3.180000000
H    -5.293000000     0.300000000     3.696000000
H    -5.712000000     1.267000000     2.609000000
O    -3.614000000    -0.411000000     4.642000000
H    -2.774000000    -0.818000000     4.853000000
H    -3.382000000     0.457000000     4.311000000
O    -0.956000000     3.403000000     5.549000000
H    -0.401000000     3.276000000     4.780000000
H    -0.363000000     3.741000000     6.220000000
O    -1.894000000    -4.630000000     2.405000000
H    -1.627000000    -4.175000000     1.606000000
H    -1.946000000    -5.551000000     2.149000000
O    -1.984000000    -0.783000000    -6.609000000
H    -1.841000000     0.086000000    -6.234000000
H    -2.543000000    -1.229000000    -5.973000000
O    -2.755000000     3.329000000    -0.293000000
H    -2.942000000     3.916000000    -1.026000000
H    -1.851000000     3.049000000    -0.436000000
O    -6.653000000    -1.802000000     2.060000000
H    -6.238000000    -2.284000000     2.775000000
H    -6.676000000    -0.895000000     2.365000000
O    -5.115000000    -3.302000000     3.600000000
H    -4.494000000    -2.749000000     4.073000000
H    -5.828000000    -3.448000000     4.221000000
O     3.357000000     0.453000000     5.626000000
H     3.749000000     1.322000000     5.710000000
H     4.078000000    -0.152000000     5.798000000
O     0.562000000     3.245000000    -0.436000000
H     1.487000000     3.133000000    -0.653000000
H     0.518000000     3.100000000     0.509000000
O     0.288000000     1.596000000    -5.677000000
H     0.794000000     2.293000000    -6.095000000
H     0.603000000     1.581000000    -4.773000000
O    -2.385000000    -2.409000000     6.835000000
H    -1.998000000    -3.281000000     6.758000000
H    -3.318000000    -2.572000000     6.973000000
O     7.543000000     1.376000000    -5.219000000
H     7.374000000     0.979000000    -6.073000000
H     7.003000000     0.872000000    -4.610000000
O     2.080000000     3.234000000     2.995000000
H     1.600000000     2.502000000     3.381000000
H     1.421000000     3.919000000     2.879000000
O    -2.959000000     4.699000000     2.297000000
H    -3.545000000     5.303000000     1.841000000
H    -2.809000000     3.991000000     1.671000000
O    -5.165000000    -0.668000000    -0.123000000
H    -5.736000000    -1.095000000     0.516000000
H    -5.605000000    -0.801000000    -0.963000000
O    -3.492000000    -2.257000000    -4.826000000
H    -3.832000000    -2.916000000    -5.432000000
H    -3.390000000    -2.725000000    -3.997000000
O     2.638000000    -3.926000000     3.195000000
H     2.053000000    -3.612000000     2.506000000
H     3.413000000    -3.368000000     3.124000000
O    -0.862000000     3.586000000    -2.667000000
H    -0.332000000     4.124000000    -3.256000000
H    -0.327000000     3.496000000    -1.878000000
O     4.229000000    -2.873000000    -1.896000000
H     3.793000000    -3.572000000    -2.383000000
H     4.458000000    -2.225000000    -2.562000000
O     3.795000000     3.210000000    -3.149000000
H     3.224000000     2.451000000    -3.026000000
H     4.670000000     2.836000000    -3.256000000
O    -3.201000000     2.169000000    -3.344000000
H    -2.607000000     2.810000000    -2.954000000
H    -3.214000000     1.443000000    -2.721000000
O     3.249000000     5.172000000    -4.916000000
H     3.471000000     4.538000000    -4.234000000
H     4.022000000     5.198000000    -5.479000000
O    -5.044000000    -0.018000000    -4.333000000
H    -4.695000000     0.745000000    -4.793000000
H    -4.353000000    -0.676000000    -4.401000000
O    -1.194000000    -3.905000000    -0.323000000
H    -2.053000000    -3.484000000    -0.365000000
H    -1.007000000    -4.156000000    -1.227000000
O     0.906000000     1.218000000     4.478000000
H     1.764000000     0.834000000     4.659000000
H     0.306000000     0.750000000     5.058000000
O    -4.570000000     1.870000000     1.176000000
H    -4.635000000     1.088000000     0.628000000
H    -3.984000000     2.453000000     0.694000000
O     1.722000000    -0.721000000    -7.559000000
H     0.991000000    -0.319000000    -7.092000000
H     1.313000000    -1.191000000    -8.286000000
O     4.564000000     2.699000000     2.511000000
H     3.639000000     2.905000000     2.651000000
H     4.594000000     1.743000000     2.483000000
O     4.944000000    -0.154000000    -0.664000000
H     4.065000000     0.059000000    -0.978000000
H     5.308000000     0.686000000    -0.382000000
O     4.278000000     3.009000000    -6.793000000
H     3.983000000     2.214000000    -6.349000000
H     3.476000000     3.406000000    -7.133000000
O     7.164000000    -1.538000000     0.638000000
H     7.161000000    -2.375000000     0.173000000
H     6.429000000    -1.053000000     0.263000000
O     3.250000000     0.742000000    -5.476000000
H     2.678000000     0.781000000    -4.709000000
H     2.828000000     0.110000000    -6.058000000
O     1.082000000    -3.209000000     0.972000000
H     0.204000000    -3.461000000     0.685000000
H     1.066000000    -2.252000000     0.982000000
