144
-2823.17646
O     1.990000000    -3.758000000    -1.169000000
H     2.876000000    -3.406000000    -1.251000000
H     1.902000000    -4.361000000    -1.907000000
O     3.989000000    -6.075000000     1.201000000
H     4.182000000    -5.722000000     2.070000000
H     3.037000000    -6.008000000     1.122000000
O     1.513000000    -5.363000000     0.976000000
H     1.517000000    -4.830000000     0.181000000
H     0.611000000    -5.312000000     1.293000000
O    -3.479000000     6.920000000    -0.632000000
H    -2.652000000     6.881000000    -1.112000000
H    -3.607000000     6.030000000    -0.303000000
O     2.150000000    -0.503000000    -6.118000000
H     1.201000000    -0.607000000    -6.189000000
H     2.489000000    -1.398000000    -6.106000000
O    -3.930000000    -3.244000000    -3.734000000
H    -3.361000000    -3.118000000    -2.974000000
H    -3.844000000    -4.174000000    -3.946000000
O    -5.672000000     1.781000000     4.174000000
H    -5.975000000     1.324000000     3.390000000
H    -5.775000000     1.142000000     4.879000000
O     7.309000000     2.044000000    -1.184000000
H     7.280000000     2.232000000    -2.123000000
H     6.428000000     1.732000000    -0.975000000
O    -5.849000000    -1.829000000     3.412000000
H    -6.126000000    -1.043000000     2.942000000
H    -5.010000000    -2.063000000     3.015000000
O    -2.891000000     4.301000000     3.455000000
H    -2.339000000     4.619000000     4.170000000
H    -3.775000000     4.584000000     3.691000000
O    -0.291000000     4.912000000    -1.063000000
H    -0.183000000     5.638000000    -1.678000000
H    -0.423000000     4.145000000    -1.619000000
O    -1.470000000    -1.916000000    -4.689000000
H    -0.566000000    -2.086000000    -4.426000000
H    -1.968000000    -2.645000000    -4.319000000
O     1.989000000     2.360000000     0.161000000
H     1.623000000     1.488000000     0.311000000
H     2.038000000     2.439000000    -0.791000000
O    -1.823000000    -3.493000000     4.355000000
H    -2.340000000    -4.001000000     4.980000000
H    -1.294000000    -2.910000000     4.899000000
O    -3.985000000     4.382000000     0.019000000
H    -3.649000000     4.248000000     0.906000000
H    -4.844000000     3.960000000     0.023000000
O    -4.607000000     5.387000000    -4.038000000
H    -4.403000000     4.578000000    -3.569000000
H    -3.753000000     5.759000000    -4.256000000
O     5.391000000    -2.725000000     0.176000000
H     6.123000000    -2.120000000     0.057000000
H     4.614000000    -2.167000000     0.160000000
O     5.002000000    -4.570000000     4.091000000
H     4.663000000    -3.697000000     3.890000000
H     5.491000000    -4.455000000     4.906000000
O     4.756000000    -4.425000000    -1.940000000
H     4.998000000    -3.918000000    -2.715000000
H     5.201000000    -3.983000000    -1.216000000
O     4.173000000     3.585000000    -3.374000000
H     3.857000000     2.871000000    -3.927000000
H     4.508000000     3.151000000    -2.589000000
O     2.340000000    -3.403000000     2.838000000
H     2.622000000    -2.693000000     2.261000000
H     2.060000000    -4.098000000     2.243000000
O    -3.244000000    -2.472000000     2.000000000
H    -2.828000000    -1.856000000     1.397000000
H    -2.622000000    -2.557000000     2.723000000
O    -1.027000000    -4.716000000     1.637000000
H    -1.913000000    -4.840000000     1.296000000
H    -1.153000000    -4.509000000     2.563000000
O     3.217000000    -2.860000000    -5.224000000
H     4.048000000    -2.750000000    -4.762000000
H     3.436000000    -3.393000000    -5.988000000
O     1.051000000    -2.459000000    -3.642000000
H     1.774000000    -2.694000000    -4.224000000
H     1.343000000    -2.737000000    -2.774000000
O    -0.622000000     0.922000000    -5.517000000
H    -1.131000000     0.886000000    -6.327000000
H    -0.663000000     0.031000000    -5.168000000
O    -3.733000000     2.917000000    -2.776000000
H    -2.878000000     2.488000000    -2.748000000
H    -3.778000000     3.415000000    -1.960000000
O    -2.095000000    -3.504000000    -1.567000000
H    -2.120000000    -4.428000000    -1.318000000
H    -1.693000000    -3.065000000    -0.817000000
O    -1.083000000     2.692000000    -3.063000000
H    -1.235000000     3.175000000    -3.875000000
H    -0.153000000     2.468000000    -3.088000000
O     5.521000000    -0.715000000    -2.370000000
H     4.713000000    -0.972000000    -1.927000000
H     6.217000000    -1.126000000    -1.858000000
O     1.884000000     0.961000000     5.207000000
H     1.328000000     1.569000000     4.720000000
H     2.471000000     0.593000000     4.546000000
O     2.936000000     1.653000000    -4.838000000
H     2.897000000     0.772000000    -5.209000000
H     2.640000000     2.225000000    -5.546000000
O     3.777000000    -0.412000000     3.977000000
H     3.622000000    -0.789000000     3.111000000
H     4.545000000    -0.879000000     4.307000000
O     5.970000000    -0.227000000    -5.060000000
H     5.586000000    -0.533000000    -4.238000000
H     6.749000000    -0.769000000    -5.177000000
O    -4.122000000    -1.196000000    -5.715000000
H    -3.689000000    -1.295000000    -4.867000000
H    -4.238000000    -2.093000000    -6.029000000
O     6.963000000    -4.053000000     1.936000000
H     6.278000000    -4.228000000     2.582000000
H     6.536000000    -3.506000000     1.277000000
O    -0.426000000    -2.172000000     6.602000000
H     0.480000000    -2.090000000     6.304000000
H    -0.353000000    -2.473000000     7.508000000
O     7.660000000    -1.333000000    -0.412000000
H     7.589000000    -0.392000000    -0.250000000
H     8.600000000    -1.490000000    -0.500000000
O    -6.520000000     0.364000000     2.023000000
H    -6.483000000     0.751000000     1.148000000
H    -7.420000000     0.051000000     2.109000000
O    -6.621000000     0.301000000    -3.208000000
H    -6.386000000    -0.625000000    -3.276000000
H    -5.929000000     0.759000000    -3.685000000
O     1.374000000     2.134000000    -2.522000000
H     0.963000000     1.318000000    -2.239000000
H     1.793000000     1.916000000    -3.355000000
O    -0.458000000     3.587000000     1.656000000
H     0.361000000     3.220000000     1.321000000
H    -0.791000000     4.122000000     0.936000000
O     4.437000000     1.850000000    -1.319000000
H     4.351000000     0.898000000    -1.264000000
H     3.758000000     2.186000000    -0.734000000
O     1.906000000    -2.133000000     5.298000000
H     2.239000000    -1.300000000     4.963000000
H     2.106000000    -2.766000000     4.608000000
O    -2.676000000     1.505000000     4.799000000
H    -3.458000000     1.529000000     4.248000000
H    -2.840000000     2.159000000     5.478000000
O    -1.518000000     6.614000000     2.070000000
H    -2.139000000     6.051000000     2.534000000
H    -0.911000000     6.005000000     1.649000000
O    -0.186000000     2.281000000     3.943000000
H    -1.034000000     1.916000000     4.197000000
H    -0.393000000     2.909000000     3.252000000
O    -6.940000000     1.736000000    -0.613000000
H    -6.626000000     1.268000000    -1.386000000
H    -6.822000000     2.661000000    -0.827000000
