144
-2815.05164
O    -2.356000000    -5.674000000     1.642000000
H    -1.754000000    -5.155000000     2.175000000
H    -2.300000000    -5.285000000     0.769000000
O     3.328000000     1.688000000     2.297000000
H     2.465000000     1.722000000     1.885000000
H     3.160000000     1.355000000     3.178000000
O     6.301000000     2.536000000     2.460000000
H     6.350000000     3.273000000     1.850000000
H     5.508000000     2.066000000     2.203000000
O     7.062000000    -0.128000000    -1.870000000
H     7.088000000    -0.511000000    -0.993000000
H     7.490000000     0.722000000    -1.773000000
O     3.224000000    -2.552000000     1.476000000
H     3.145000000    -2.391000000     0.536000000
H     3.632000000    -3.415000000     1.539000000
O     3.668000000     4.066000000    -1.048000000
H     3.578000000     4.482000000    -1.905000000
H     3.636000000     3.127000000    -1.232000000
O     4.672000000     3.569000000    -5.200000000
H     3.718000000     3.605000000    -5.255000000
H     4.847000000     3.009000000    -4.443000000
O     6.058000000    -4.201000000    -0.214000000
H     5.108000000    -4.185000000    -0.098000000
H     6.342000000    -3.315000000     0.015000000
O     2.918000000     4.989000000     1.713000000
H     2.911000000     5.941000000     1.620000000
H     2.779000000     4.660000000     0.825000000
O    -2.289000000     0.689000000     6.674000000
H    -2.820000000     1.466000000     6.848000000
H    -2.874000000     0.100000000     6.198000000
O    -3.238000000    -3.338000000     3.963000000
H    -2.490000000    -3.436000000     3.374000000
H    -3.542000000    -4.232000000     4.117000000
O    -5.450000000    -2.569000000     2.270000000
H    -4.947000000    -2.849000000     3.034000000
H    -5.737000000    -3.385000000     1.860000000
O    -3.091000000     5.817000000     0.526000000
H    -3.382000000     5.234000000    -0.175000000
H    -2.220000000     5.495000000     0.758000000
O     5.976000000     4.423000000     0.448000000
H     5.153000000     4.436000000    -0.042000000
H     6.615000000     4.065000000    -0.168000000
O     1.719000000    -4.709000000    -2.199000000
H     1.435000000    -4.921000000    -1.309000000
H     0.929000000    -4.384000000    -2.631000000
O    -0.641000000    -3.494000000    -3.377000000
H    -1.309000000    -4.013000000    -3.826000000
H    -0.074000000    -3.174000000    -4.079000000
O    -0.628000000     4.776000000     3.637000000
H    -1.116000000     4.116000000     4.130000000
H    -0.561000000     5.520000000     4.235000000
O     5.221000000    -0.848000000    -3.894000000
H     5.890000000    -0.713000000    -3.223000000
H     4.410000000    -0.974000000    -3.402000000
O    -3.960000000    -1.285000000     5.696000000
H    -3.383000000    -1.851000000     5.184000000
H    -4.830000000    -1.668000000     5.586000000
O     1.170000000    -2.043000000     3.118000000
H     1.224000000    -1.179000000     3.526000000
H     2.074000000    -2.253000000     2.882000000
O     3.616000000    -1.284000000    -7.076000000
H     3.887000000    -1.029000000    -6.194000000
H     3.429000000    -2.220000000    -7.007000000
O     0.972000000     2.248000000    -6.160000000
H     0.578000000     1.510000000    -5.695000000
H     1.328000000     2.805000000    -5.467000000
O    -2.101000000    -4.639000000    -0.682000000
H    -2.463000000    -5.408000000    -1.123000000
H    -1.626000000    -4.171000000    -1.368000000
O     1.414000000     2.928000000    -3.473000000
H     1.157000000     3.711000000    -2.987000000
H     2.055000000     2.495000000    -2.908000000
O    -1.888000000     1.676000000    -2.720000000
H    -1.722000000     2.584000000    -2.468000000
H    -1.205000000     1.175000000    -2.274000000
O     0.991000000    -5.990000000     0.315000000
H     1.057000000    -5.702000000     1.225000000
H     0.119000000    -6.379000000     0.250000000
O    -4.775000000     2.039000000    -2.912000000
H    -5.260000000     1.760000000    -2.135000000
H    -3.877000000     1.749000000    -2.750000000
O    -1.481000000     4.154000000    -1.580000000
H    -1.757000000     5.067000000    -1.657000000
H    -1.160000000     4.076000000    -0.681000000
O     1.348000000     0.397000000     4.325000000
H     0.776000000     0.763000000     5.000000000
H     2.231000000     0.640000000     4.604000000
O     1.746000000    -1.835000000    -4.141000000
H     2.281000000    -1.367000000    -3.500000000
H     1.010000000    -1.247000000    -4.313000000
O    -0.433000000    -0.145000000    -4.648000000
H    -0.875000000    -0.346000000    -3.823000000
H    -1.114000000    -0.243000000    -5.314000000
O     5.040000000     1.757000000    -3.259000000
H     5.148000000     0.913000000    -3.697000000
H     4.347000000     1.605000000    -2.615000000
O    -6.271000000     1.671000000    -0.582000000
H    -6.405000000     0.796000000    -0.218000000
H    -6.415000000     2.262000000     0.157000000
O     1.564000000     7.409000000     1.785000000
H     1.507000000     8.029000000     2.513000000
H     0.783000000     6.862000000     1.875000000
O    -6.857000000    -0.251000000     3.957000000
H    -6.052000000    -0.056000000     4.437000000
H    -6.680000000    -1.084000000     3.520000000
O     6.760000000    -1.716000000     0.475000000
H     5.920000000    -1.266000000     0.572000000
H     7.291000000    -1.389000000     1.201000000
O     7.223000000     3.186000000    -1.939000000
H     8.084000000     3.051000000    -2.336000000
H     6.629000000     2.652000000    -2.467000000
O    -2.362000000    -1.417000000    -2.337000000
H    -1.725000000    -2.130000000    -2.293000000
H    -2.553000000    -1.211000000    -1.422000000
O    -0.632000000    -4.124000000     2.848000000
H     0.126000000    -4.694000000     2.980000000
H    -0.259000000    -3.248000000     2.749000000
O     0.478000000    -2.957000000     5.744000000
H     0.719000000    -2.816000000     4.829000000
H     0.418000000    -3.908000000     5.832000000
O     3.003000000    -3.724000000    -6.104000000
H     3.517000000    -4.502000000    -5.890000000
H     2.449000000    -3.584000000    -5.336000000
O     4.854000000     0.180000000     0.485000000
H     4.485000000     0.256000000    -0.395000000
H     4.166000000     0.512000000     1.062000000
O    -4.950000000    -0.913000000    -2.683000000
H    -4.133000000    -1.400000000    -2.574000000
H    -4.749000000    -0.252000000    -3.345000000
O    -6.722000000    -0.777000000     0.569000000
H    -6.942000000    -1.606000000     0.145000000
H    -6.010000000    -0.998000000     1.171000000
O    -0.542000000     4.247000000     1.041000000
H     0.222000000     3.705000000     0.843000000
H    -0.489000000     4.400000000     1.984000000
O     3.556000000    -3.000000000    -1.171000000
H     3.474000000    -2.103000000    -1.496000000
H     2.999000000    -3.517000000    -1.753000000
O     2.857000000     5.561000000    -3.148000000
H     2.945000000     6.446000000    -2.793000000
H     2.491000000     5.689000000    -4.023000000
O     3.362000000     3.784000000     4.512000000
H     4.001000000     4.474000000     4.692000000
H     3.310000000     3.750000000     3.556000000
