144
-2815.24252
O     5.180000000     5.768000000    -3.320000000
H     4.949000000     6.418000000    -2.656000000
H     4.474000000     5.122000000    -3.278000000
O     1.819000000    -2.530000000    -0.432000000
H     1.211000000    -2.528000000    -1.172000000
H     1.574000000    -1.760000000     0.081000000
O     5.168000000     1.042000000    -1.344000000
H     5.572000000     1.893000000    -1.517000000
H     4.252000000     1.156000000    -1.597000000
O     2.553000000    -4.097000000     3.630000000
H     2.538000000    -3.175000000     3.372000000
H     2.935000000    -4.094000000     4.507000000
O     3.602000000    -1.450000000     2.364000000
H     3.769000000    -0.512000000     2.455000000
H     4.185000000    -1.730000000     1.657000000
O     3.178000000     2.910000000     3.235000000
H     3.280000000     2.931000000     2.284000000
H     2.928000000     3.804000000     3.470000000
O    -5.705000000    -1.206000000     0.652000000
H    -5.068000000    -1.919000000     0.615000000
H    -5.988000000    -1.090000000    -0.255000000
O    -0.786000000     3.372000000    -3.904000000
H    -0.527000000     4.255000000    -3.639000000
H    -0.135000000     2.800000000    -3.498000000
O    -3.151000000     2.680000000    -4.967000000
H    -2.352000000     2.923000000    -4.499000000
H    -2.851000000     2.438000000    -5.843000000
O    -5.348000000     0.713000000     4.674000000
H    -5.659000000     0.292000000     5.476000000
H    -4.421000000     0.885000000     4.838000000
O     3.181000000     1.885000000    -5.030000000
H     2.366000000     2.125000000    -4.590000000
H     3.684000000     2.699000000    -5.062000000
O    -3.441000000    -2.568000000     3.896000000
H    -2.628000000    -2.365000000     4.359000000
H    -3.162000000    -3.078000000     3.135000000
O     1.097000000    -0.486000000    -4.251000000
H     2.008000000    -0.773000000    -4.317000000
H     1.138000000     0.326000000    -3.746000000
O     5.419000000    -1.220000000     0.150000000
H     6.205000000    -1.283000000     0.693000000
H     5.518000000    -0.391000000    -0.319000000
O    -1.619000000    -3.732000000    -0.850000000
H    -1.339000000    -3.200000000    -1.595000000
H    -1.582000000    -4.632000000    -1.172000000
O     1.200000000     1.505000000     4.754000000
H     1.709000000     1.640000000     5.553000000
H     1.653000000     2.025000000     4.091000000
O    -6.134000000    -2.199000000     3.885000000
H    -6.241000000    -1.298000000     4.191000000
H    -5.209000000    -2.264000000     3.650000000
O    -1.718000000    -5.137000000     2.772000000
H    -1.669000000    -4.869000000     1.855000000
H    -2.322000000    -5.880000000     2.772000000
O    -5.574000000     0.947000000     2.066000000
H    -5.746000000     0.137000000     1.586000000
H    -5.389000000     0.661000000     2.960000000
O     5.216000000     0.983000000     3.369000000
H     4.400000000     1.482000000     3.370000000
H     5.876000000     1.601000000     3.685000000
O     6.146000000     2.770000000    -3.831000000
H     5.585000000     3.380000000    -4.309000000
H     6.133000000     3.089000000    -2.929000000
O     0.956000000    -1.094000000     5.255000000
H     1.050000000    -0.226000000     4.865000000
H     1.707000000    -1.175000000     5.843000000
O    -0.007000000     5.926000000    -3.194000000
H    -0.514000000     6.625000000    -2.780000000
H     0.072000000     6.197000000    -4.108000000
O     3.881000000    -0.587000000    -4.326000000
H     3.778000000     0.260000000    -4.759000000
H     4.004000000    -1.209000000    -5.044000000
O    -1.235000000    -2.625000000     5.356000000
H    -0.956000000    -3.487000000     5.664000000
H    -0.426000000    -2.200000000     5.069000000
O     4.019000000     3.082000000     0.457000000
H     4.888000000     3.260000000     0.096000000
H     3.589000000     2.545000000    -0.208000000
O    -0.413000000     0.027000000    -6.499000000
H    -0.104000000    -0.099000000    -5.602000000
H    -0.263000000    -0.816000000    -6.926000000
O    -3.429000000    -0.904000000    -4.273000000
H    -3.027000000    -0.035000000    -4.257000000
H    -3.803000000    -1.010000000    -3.398000000
O     0.566000000     2.898000000    -6.326000000
H     0.071000000     3.106000000    -5.533000000
H     0.369000000     1.977000000    -6.496000000
O    -5.766000000    -3.504000000    -2.115000000
H    -5.299000000    -3.634000000    -1.289000000
H    -5.547000000    -2.609000000    -2.375000000
O    -2.572000000    -0.910000000     7.431000000
H    -2.124000000    -1.369000000     6.721000000
H    -3.256000000    -0.403000000     6.994000000
O     6.483000000     0.081000000    -3.773000000
H     5.720000000    -0.458000000    -3.980000000
H     6.138000000     0.971000000    -3.707000000
O     2.789000000     4.213000000    -3.277000000
H     2.614000000     3.389000000    -2.822000000
H     2.129000000     4.818000000    -2.938000000
O     2.120000000     5.385000000    -0.548000000
H     2.562000000     4.590000000    -0.251000000
H     2.800000000     5.882000000    -1.002000000
O    -3.863000000    -3.358000000     0.691000000
H    -4.340000000    -4.187000000     0.646000000
H    -3.152000000    -3.456000000     0.057000000
O     4.268000000    -1.933000000     5.183000000
H     3.983000000    -1.598000000     4.333000000
H     5.224000000    -1.931000000     5.133000000
O    -2.718000000     3.135000000    -0.757000000
H    -2.040000000     2.463000000    -0.692000000
H    -2.299000000     3.931000000    -0.430000000
O    -3.891000000     2.937000000     2.681000000
H    -4.366000000     2.198000000     2.302000000
H    -3.003000000     2.607000000     2.817000000
O     0.020000000    -2.745000000    -2.835000000
H    -0.047000000    -1.934000000    -3.339000000
H     0.646000000    -3.280000000    -3.324000000
O     2.178000000    -5.013000000     0.762000000
H     1.771000000    -4.255000000     0.342000000
H     2.325000000    -4.736000000     1.666000000
O    -5.313000000     2.416000000    -1.253000000
H    -5.701000000     2.481000000    -0.380000000
H    -4.379000000     2.573000000    -1.112000000
O    -3.497000000     5.009000000    -2.687000000
H    -3.173000000     4.268000000    -2.175000000
H    -4.450000000     4.927000000    -2.649000000
O     6.335000000     3.920000000    -1.278000000
H     6.264000000     4.874000000    -1.256000000
H     7.272000000     3.747000000    -1.183000000
O     0.823000000    -6.169000000     3.910000000
H     1.658000000    -5.731000000     3.744000000
H     0.163000000    -5.555000000     3.588000000
O    -1.239000000     2.107000000     2.652000000
H    -0.376000000     1.974000000     3.042000000
H    -1.090000000     2.036000000     1.710000000
O     4.244000000    -3.117000000    -1.355000000
H     4.556000000    -2.327000000    -0.914000000
H     3.304000000    -3.136000000    -1.176000000
O    -5.670000000    -0.731000000    -2.352000000
H    -5.800000000    -0.606000000    -3.292000000
H    -5.891000000     0.115000000    -1.965000000
O    -2.835000000     1.270000000     4.994000000
H    -2.370000000     2.047000000     4.684000000
H    -2.294000000     0.535000000     4.705000000
