144
-2831.53218
O     2.660000000     1.823000000     5.964000000
H     1.795000000     1.644000000     5.596000000
H     2.545000000     1.722000000     6.908000000
O     3.754000000     4.011000000     0.959000000
H     3.468000000     4.491000000     1.736000000
H     4.457000000     4.548000000     0.591000000
O     0.971000000     6.702000000    -3.045000000
H     1.121000000     5.816000000    -3.375000000
H     0.175000000     6.992000000    -3.491000000
O     0.909000000     6.688000000    -0.040000000
H     0.893000000     5.744000000     0.118000000
H     1.357000000     6.783000000    -0.880000000
O    -3.050000000    -0.962000000     6.155000000
H    -2.772000000    -0.414000000     6.889000000
H    -4.006000000    -0.933000000     6.183000000
O    -3.382000000    -4.960000000     2.222000000
H    -3.829000000    -5.431000000     1.518000000
H    -2.473000000    -5.256000000     2.169000000
O    -3.701000000     3.310000000     1.114000000
H    -2.820000000     3.149000000     1.452000000
H    -3.605000000     4.079000000     0.552000000
O    -4.037000000    -1.102000000     3.530000000
H    -4.478000000    -1.941000000     3.657000000
H    -3.242000000    -1.167000000     4.059000000
O    -0.439000000    -3.772000000     4.019000000
H     0.224000000    -4.355000000     4.388000000
H    -0.221000000    -3.718000000     3.089000000
O     3.962000000     4.938000000    -3.108000000
H     3.787000000     5.028000000    -2.171000000
H     3.097000000     4.971000000    -3.517000000
O    -1.586000000     3.728000000    -3.017000000
H    -1.898000000     4.047000000    -3.864000000
H    -2.013000000     2.878000000    -2.910000000
O     0.409000000    -1.609000000    -4.720000000
H    -0.475000000    -1.286000000    -4.896000000
H     0.885000000    -0.841000000    -4.406000000
O    -4.329000000    -1.782000000    -0.088000000
H    -4.586000000    -0.887000000     0.133000000
H    -4.896000000    -2.334000000     0.451000000
O     3.954000000    -1.765000000    -3.710000000
H     3.106000000    -2.159000000    -3.505000000
H     4.528000000    -2.511000000    -3.886000000
O    -3.003000000     1.389000000    -3.016000000
H    -3.938000000     1.425000000    -3.215000000
H    -2.845000000     0.478000000    -2.771000000
O    -0.911000000     5.307000000     2.082000000
H    -1.334000000     4.935000000     1.308000000
H    -0.916000000     4.596000000     2.723000000
O     1.855000000     4.082000000    -1.014000000
H     2.493000000     4.036000000    -0.302000000
H     2.007000000     3.286000000    -1.524000000
O     5.858000000     3.066000000    -3.975000000
H     5.189000000     3.666000000    -3.647000000
H     5.426000000     2.587000000    -4.682000000
O     0.876000000     1.590000000    -6.002000000
H     0.801000000     2.404000000    -5.503000000
H     0.963000000     0.908000000    -5.336000000
O     0.680000000    -1.650000000     5.720000000
H     0.559000000    -2.289000000     5.017000000
H     1.299000000    -2.067000000     6.319000000
O    -5.183000000     1.465000000     3.276000000
H    -4.763000000     0.688000000     2.908000000
H    -5.124000000     2.121000000     2.581000000
O    -6.695000000    -0.642000000     2.220000000
H    -6.976000000    -1.424000000     2.697000000
H    -5.988000000    -0.278000000     2.753000000
O    -3.808000000     2.705000000     5.419000000
H    -4.505000000     2.154000000     5.063000000
H    -3.877000000     2.598000000     6.367000000
O     4.327000000    -1.143000000     1.715000000
H     5.151000000    -1.569000000     1.476000000
H     4.470000000    -0.218000000     1.519000000
O    -1.344000000     4.088000000    -0.189000000
H    -1.681000000     4.209000000    -1.077000000
H    -0.579000000     3.523000000    -0.298000000
O     4.567000000     1.207000000    -2.149000000
H     4.749000000     1.199000000    -3.089000000
H     3.614000000     1.275000000    -2.091000000
O     1.362000000    -2.976000000    -7.033000000
H     2.308000000    -2.912000000    -7.161000000
H     1.200000000    -2.519000000    -6.208000000
O    -5.151000000    -3.414000000     3.268000000
H    -5.499000000    -4.170000000     3.740000000
H    -4.287000000    -3.697000000     2.967000000
O     4.055000000     1.893000000    -7.692000000
H     3.235000000     2.387000000    -7.705000000
H     4.130000000     1.577000000    -6.792000000
O     0.152000000    -3.849000000     1.338000000
H    -0.351000000    -3.943000000     0.529000000
H     0.825000000    -3.202000000     1.128000000
O     0.067000000     0.881000000     5.037000000
H    -0.011000000    -0.060000000     5.194000000
H    -0.447000000     1.285000000     5.737000000
O     2.154000000    -2.140000000     0.263000000
H     2.876000000    -1.723000000     0.733000000
H     1.594000000    -1.414000000    -0.011000000
O    -1.673000000    -0.146000000    -5.478000000
H    -2.116000000     0.480000000    -4.905000000
H    -1.249000000     0.397000000    -6.143000000
O     1.457000000    -3.207000000    -2.739000000
H     0.990000000    -2.826000000    -3.483000000
H     1.531000000    -2.490000000    -2.110000000
O    -1.157000000     1.295000000    -7.797000000
H    -0.385000000     1.532000000    -7.284000000
H    -0.909000000     1.482000000    -8.703000000
O     4.657000000     1.546000000     0.436000000
H     4.528000000     2.492000000     0.504000000
H     4.571000000     1.359000000    -0.499000000
O     4.038000000     0.504000000    -5.183000000
H     3.180000000     0.807000000    -4.884000000
H     4.095000000    -0.399000000    -4.871000000
O    -4.565000000    -0.166000000    -5.956000000
H    -4.540000000     0.682000000    -6.398000000
H    -3.645000000    -0.419000000    -5.871000000
O     5.295000000    -1.852000000    -0.789000000
H     4.822000000    -1.783000000    -1.618000000
H     6.153000000    -1.467000000    -0.969000000
O    -1.811000000    -4.756000000    -4.988000000
H    -1.973000000    -3.925000000    -5.434000000
H    -2.628000000    -4.944000000    -4.527000000
O    -1.599000000     3.082000000     3.829000000
H    -2.406000000     2.801000000     4.262000000
H    -0.955000000     2.415000000     4.067000000
O    -3.611000000    -1.190000000    -2.678000000
H    -3.851000000    -1.206000000    -1.751000000
H    -4.080000000    -1.932000000    -3.059000000
O     6.171000000     1.948000000     3.020000000
H     5.734000000     2.559000000     3.613000000
H     5.574000000     1.867000000     2.276000000
O    -1.825000000    -4.135000000    -0.933000000
H    -1.806000000    -4.416000000    -1.848000000
H    -2.558000000    -3.522000000    -0.886000000
O     1.213000000     3.974000000    -3.837000000
H     0.288000000     3.804000000    -3.659000000
H     1.666000000     3.195000000    -3.515000000
O     1.555000000    -6.379000000     1.083000000
H     1.048000000    -7.021000000     0.587000000
H     0.999000000    -5.600000000     1.107000000
O    -4.882000000     0.889000000     0.502000000
H    -4.369000000     1.697000000     0.483000000
H    -5.792000000     1.184000000     0.543000000
O    -2.484000000    -3.724000000     6.052000000
H    -2.738000000    -2.802000000     6.034000000
H    -1.801000000    -3.797000000     5.385000000
