144
-2839.17318
O    -0.680000000    -0.420000000     6.543000000
H    -1.562000000    -0.102000000     6.737000000
H    -0.170000000    -0.202000000     7.323000000
O     4.345000000     3.053000000     1.832000000
H     4.087000000     3.856000000     2.284000000
H     5.180000000     2.811000000     2.232000000
O    -2.869000000     1.366000000     7.298000000
H    -2.405000000     1.954000000     6.702000000
H    -3.666000000     1.843000000     7.531000000
O     2.506000000     3.577000000    -4.184000000
H     2.089000000     2.815000000    -3.781000000
H     2.038000000     3.697000000    -5.010000000
O    -4.242000000     1.280000000     4.218000000
H    -3.713000000     1.612000000     3.493000000
H    -4.156000000     1.945000000     4.901000000
O    -3.216000000     2.080000000     1.820000000
H    -2.348000000     2.211000000     2.202000000
H    -3.136000000     2.408000000     0.924000000
O     1.933000000     5.200000000     2.320000000
H     1.091000000     5.403000000     2.727000000
H     1.909000000     4.254000000     2.178000000
O    -2.998000000    -4.757000000     4.489000000
H    -2.379000000    -5.486000000     4.535000000
H    -2.472000000    -3.983000000     4.690000000
O     4.310000000     4.745000000    -2.276000000
H     4.609000000     4.043000000    -1.697000000
H     3.640000000     4.335000000    -2.823000000
O    -2.138000000     1.043000000    -6.072000000
H    -2.649000000     1.735000000    -6.490000000
H    -2.737000000     0.654000000    -5.435000000
O     2.158000000    -2.396000000    -3.502000000
H     1.226000000    -2.323000000    -3.296000000
H     2.439000000    -1.495000000    -3.660000000
O    -6.169000000    -1.023000000     0.437000000
H    -6.237000000    -0.162000000     0.849000000
H    -5.796000000    -1.585000000     1.117000000
O     7.712000000     1.553000000    -4.361000000
H     6.847000000     1.150000000    -4.289000000
H     7.588000000     2.280000000    -4.971000000
O    -3.743000000    -0.047000000    -3.695000000
H    -4.689000000     0.067000000    -3.790000000
H    -3.634000000    -0.418000000    -2.819000000
O    -0.284000000     3.152000000     1.080000000
H    -0.248000000     2.475000000     0.404000000
H    -0.346000000     3.973000000     0.592000000
O     4.793000000     2.497000000    -0.819000000
H     4.435000000     2.696000000     0.046000000
H     4.163000000     1.889000000    -1.205000000
O    -7.141000000     1.771000000    -0.993000000
H    -6.648000000     1.031000000    -1.347000000
H    -6.730000000     1.950000000    -0.147000000
O     4.978000000     2.901000000    -6.267000000
H     4.919000000     2.832000000    -7.220000000
H     4.081000000     2.770000000    -5.961000000
O     0.949000000     0.079000000    -5.793000000
H     1.043000000     0.283000000    -4.862000000
H     0.004000000     0.100000000    -5.949000000
O     3.161000000    -3.258000000     5.621000000
H     3.187000000    -3.864000000     6.362000000
H     2.336000000    -3.458000000     5.178000000
O    -0.826000000     3.778000000     5.848000000
H    -0.873000000     3.413000000     4.964000000
H    -0.260000000     4.545000000     5.761000000
O    -7.014000000     0.985000000     4.337000000
H    -6.075000000     0.856000000     4.466000000
H    -7.121000000     1.935000000     4.286000000
O    -0.637000000     3.818000000    -1.755000000
H    -0.794000000     4.727000000    -2.013000000
H    -0.483000000     3.359000000    -2.581000000
O     4.973000000    -0.530000000    -0.443000000
H     4.356000000    -0.299000000    -1.137000000
H     5.352000000     0.306000000    -0.171000000
O     5.806000000    -2.103000000    -2.284000000
H     5.539000000    -1.856000000    -1.399000000
H     5.696000000    -1.303000000    -2.799000000
O     0.811000000    -3.786000000     4.414000000
H    -0.014000000    -3.379000000     4.678000000
H     0.900000000    -3.566000000     3.487000000
O     0.897000000     0.456000000     4.435000000
H     1.615000000    -0.172000000     4.344000000
H     0.231000000    -0.013000000     4.938000000
O     1.209000000    -3.300000000     1.909000000
H     1.942000000    -2.736000000     1.664000000
H     0.699000000    -3.392000000     1.104000000
O     6.696000000     4.194000000     0.109000000
H     7.597000000     3.873000000     0.132000000
H     6.174000000     3.425000000    -0.122000000
O    -4.314000000    -1.531000000     4.602000000
H    -4.783000000    -1.555000000     5.437000000
H    -4.179000000    -0.599000000     4.431000000
O    -0.373000000    -2.246000000    -2.468000000
H    -0.659000000    -1.340000000    -2.585000000
H    -0.844000000    -2.734000000    -3.143000000
O     4.359000000    -2.146000000     1.741000000
H     4.994000000    -2.862000000     1.742000000
H     4.592000000    -1.620000000     0.976000000
O     4.936000000    -0.028000000    -3.895000000
H     4.337000000     0.503000000    -3.370000000
H     4.613000000     0.061000000    -4.791000000
O     3.766000000    -0.251000000    -6.442000000
H     2.845000000    -0.214000000    -6.182000000
H     3.763000000    -0.006000000    -7.367000000
O     3.386000000    -0.893000000     4.473000000
H     3.507000000    -1.697000000     4.979000000
H     3.817000000    -1.069000000     3.637000000
O     0.223000000     2.766000000    -7.359000000
H     0.371000000     1.876000000    -7.039000000
H     1.100000000     3.139000000    -7.443000000
O     0.252000000    -4.216000000    -0.668000000
H     0.216000000    -3.374000000    -1.122000000
H    -0.625000000    -4.329000000    -0.302000000
O    -0.892000000     2.508000000     3.543000000
H    -0.350000000     1.752000000     3.766000000
H    -0.646000000     2.723000000     2.643000000
O    -2.376000000    -3.459000000     0.192000000
H    -2.699000000    -2.701000000    -0.296000000
H    -2.848000000    -3.427000000     1.024000000
O    -4.958000000    -2.800000000     2.085000000
H    -5.175000000    -3.726000000     2.195000000
H    -4.778000000    -2.490000000     2.973000000
O    -3.764000000     3.591000000    -3.386000000
H    -3.560000000     4.518000000    -3.515000000
H    -4.218000000     3.332000000    -4.188000000
O    -1.845000000     4.669000000    -5.618000000
H    -1.430000000     3.976000000    -6.132000000
H    -1.438000000     4.604000000    -4.755000000
O    -4.127000000    -1.675000000    -1.480000000
H    -4.733000000    -1.493000000    -0.761000000
H    -4.492000000    -2.448000000    -1.911000000
O    -0.605000000     2.649000000    -4.086000000
H    -1.393000000     2.112000000    -4.172000000
H     0.103000000     2.016000000    -3.968000000
O    -6.066000000     1.503000000     1.589000000
H    -5.147000000     1.720000000     1.749000000
H    -6.493000000     1.632000000     2.435000000
O    -3.196000000     3.133000000    -0.789000000
H    -3.617000000     3.150000000    -1.649000000
H    -2.272000000     2.973000000    -0.977000000
O     2.947000000     2.578000000     4.708000000
H     3.474000000     1.869000000     5.077000000
H     2.299000000     2.135000000     4.160000000
O    -1.518000000    -2.485000000     5.129000000
H    -2.356000000    -2.063000000     4.938000000
H    -1.144000000    -1.964000000     5.840000000
