144
-2833.02617
O     3.942000000    -1.375000000     6.339000000
H     3.508000000    -0.665000000     5.867000000
H     3.905000000    -1.109000000     7.258000000
O     2.714000000     1.966000000     4.446000000
H     2.562000000     2.823000000     4.047000000
H     1.865000000     1.717000000     4.810000000
O     3.911000000     3.228000000     1.752000000
H     3.717000000     3.864000000     2.441000000
H     4.835000000     3.372000000     1.547000000
O     1.665000000     5.145000000    -3.634000000
H     0.919000000     4.558000000    -3.511000000
H     1.584000000     5.450000000    -4.538000000
O     3.099000000     6.204000000    -0.493000000
H     2.878000000     5.308000000    -0.747000000
H     2.542000000     6.754000000    -1.043000000
O    -1.102000000    -5.585000000     4.819000000
H    -1.240000000    -6.311000000     4.211000000
H    -0.972000000    -4.822000000     4.256000000
O    -1.809000000     4.980000000     3.657000000
H    -1.656000000     4.096000000     3.322000000
H    -2.399000000     5.380000000     3.018000000
O    -2.151000000     2.443000000     0.509000000
H    -1.441000000     1.802000000     0.536000000
H    -1.750000000     3.230000000     0.140000000
O    -3.804000000    -3.118000000     4.068000000
H    -3.719000000    -3.966000000     3.630000000
H    -3.041000000    -3.070000000     4.644000000
O     4.334000000     4.274000000    -3.129000000
H     4.306000000     3.883000000    -2.256000000
H     3.416000000     4.360000000    -3.384000000
O    -2.654000000     2.416000000    -4.833000000
H    -3.506000000     2.826000000    -4.686000000
H    -2.836000000     1.476000000    -4.826000000
O     2.060000000    -1.563000000    -4.415000000
H     1.168000000    -1.742000000    -4.712000000
H     1.999000000    -0.718000000    -3.969000000
O    -4.964000000    -1.509000000    -0.482000000
H    -4.978000000    -0.579000000    -0.256000000
H    -5.659000000    -1.895000000     0.052000000
O     5.870000000    -3.167000000    -2.481000000
H     4.914000000    -3.126000000    -2.450000000
H     6.068000000    -3.457000000    -3.372000000
O    -3.975000000    -0.127000000    -3.853000000
H    -4.895000000     0.126000000    -3.776000000
H    -3.965000000    -1.062000000    -3.647000000
O     1.251000000     3.396000000     1.807000000
H     2.082000000     3.051000000     1.480000000
H     0.761000000     3.628000000     1.018000000
O     2.876000000     3.273000000    -0.800000000
H     3.323000000     3.069000000     0.022000000
H     2.900000000     2.454000000    -1.295000000
O     5.571000000     2.048000000    -4.102000000
H     4.921000000     2.725000000    -3.914000000
H     5.225000000     1.260000000    -3.683000000
O     2.329000000     1.249000000    -6.013000000
H     1.818000000     2.053000000    -6.106000000
H     2.361000000     1.094000000    -5.069000000
O     0.547000000    -2.408000000     4.212000000
H     1.486000000    -2.584000000     4.278000000
H     0.203000000    -3.137000000     3.696000000
O    -3.517000000     1.533000000     3.762000000
H    -4.050000000     1.560000000     2.967000000
H    -2.614000000     1.535000000     3.445000000
O    -6.848000000     0.448000000     2.905000000
H    -6.553000000     0.591000000     3.804000000
H    -6.861000000     1.323000000     2.516000000
O     4.199000000    -2.859000000     1.975000000
H     4.043000000    -3.378000000     2.764000000
H     4.131000000    -1.951000000     2.268000000
O    -0.597000000     4.464000000    -0.365000000
H    -1.270000000     5.127000000    -0.521000000
H    -0.195000000     4.326000000    -1.223000000
O     4.713000000     0.359000000     0.073000000
H     5.618000000     0.085000000    -0.078000000
H     4.417000000     0.686000000    -0.777000000
O     2.695000000    -2.498000000    -7.136000000
H     2.747000000    -2.166000000    -6.240000000
H     2.873000000    -3.435000000    -7.056000000
O    -3.749000000    -5.497000000     2.445000000
H    -3.674000000    -6.391000000     2.112000000
H    -3.487000000    -4.944000000     1.710000000
O     5.179000000    -0.835000000    -6.099000000
H     4.710000000    -0.085000000    -6.466000000
H     4.996000000    -0.796000000    -5.161000000
O    -0.771000000    -4.256000000     2.339000000
H    -1.489000000    -3.697000000     2.042000000
H    -0.848000000    -5.048000000     1.806000000
O     0.384000000     0.683000000     5.292000000
H     0.225000000    -0.254000000     5.400000000
H     0.035000000     1.079000000     6.091000000
O     2.182000000    -2.800000000     0.084000000
H     2.884000000    -2.778000000     0.734000000
H     1.525000000    -2.189000000     0.419000000
O    -4.969000000    -0.094000000     5.542000000
H    -4.976000000    -1.015000000     5.282000000
H    -4.487000000     0.349000000     4.844000000
O    -0.735000000    -2.062000000    -5.124000000
H    -0.802000000    -1.345000000    -5.755000000
H    -1.377000000    -2.705000000    -5.423000000
O     3.291000000    -2.838000000    -2.261000000
H     2.660000000    -2.515000000    -2.904000000
H     2.827000000    -2.792000000    -1.425000000
O     0.730000000    -0.308000000    -7.596000000
H     1.087000000     0.176000000    -6.851000000
H     1.290000000    -1.081000000    -7.671000000
O     3.922000000    -0.059000000     2.757000000
H     3.467000000     0.447000000     3.430000000
H     4.206000000     0.594000000     2.117000000
O     4.938000000    -0.444000000    -3.320000000
H     4.167000000    -0.166000000    -2.825000000
H     5.168000000    -1.295000000    -2.947000000
O     3.673000000     1.654000000    -8.329000000
H     3.477000000     1.498000000    -7.405000000
H     3.476000000     2.581000000    -8.463000000
O    -5.854000000    -2.099000000     2.191000000
H    -5.127000000    -2.435000000     2.716000000
H    -5.919000000    -1.176000000     2.435000000
O     0.825000000     3.345000000    -6.432000000
H     1.324000000     3.667000000    -7.182000000
H     0.251000000     4.074000000    -6.196000000
O    -0.543000000    -3.633000000    -2.754000000
H    -0.723000000    -3.248000000    -3.612000000
H    -0.929000000    -3.019000000    -2.130000000
O    -0.680000000     2.312000000     3.305000000
H    -0.250000000     1.814000000     4.000000000
H     0.026000000     2.532000000     2.696000000
O    -4.797000000    -2.490000000    -2.994000000
H    -5.336000000    -3.275000000    -2.892000000
H    -4.660000000    -2.176000000    -2.100000000
O     6.942000000     0.784000000     2.946000000
H     7.064000000    -0.108000000     3.270000000
H     5.996000000     0.868000000     2.825000000
O    -3.094000000    -3.393000000     0.668000000
H    -3.567000000    -4.018000000     0.118000000
H    -3.543000000    -2.560000000     0.525000000
O    -0.263000000     3.303000000    -3.388000000
H    -0.974000000     3.248000000    -4.026000000
H     0.217000000     2.482000000    -3.492000000
O    -4.603000000     1.231000000     0.834000000
H    -3.869000000     1.801000000     0.606000000
H    -5.317000000     1.833000000     1.046000000
O    -1.433000000    -2.702000000     5.930000000
H    -1.505000000    -1.924000000     6.484000000
H    -0.715000000    -2.503000000     5.330000000
