144
-2820.97951
O     7.298000000     3.212000000    -0.321000000
H     7.898000000     2.540000000     0.004000000
H     6.427000000     2.833000000    -0.201000000
O     0.464000000     3.756000000    -3.449000000
H     1.368000000     3.536000000    -3.672000000
H    -0.066000000     3.197000000    -4.017000000
O    -4.187000000    -0.151000000     5.101000000
H    -4.193000000    -1.042000000     4.751000000
H    -3.542000000     0.312000000     4.567000000
O    -4.573000000     3.660000000    -1.165000000
H    -4.737000000     3.371000000    -0.267000000
H    -3.712000000     3.298000000    -1.379000000
O     1.690000000     5.773000000     0.552000000
H     1.200000000     5.034000000     0.191000000
H     1.230000000     5.992000000     1.362000000
O    -0.396000000    -4.471000000     2.229000000
H     0.318000000    -5.104000000     2.311000000
H    -0.487000000    -4.100000000     3.107000000
O     3.779000000    -5.714000000    -1.380000000
H     3.578000000    -6.098000000    -2.233000000
H     3.461000000    -4.813000000    -1.442000000
O     6.554000000    -3.016000000    -0.381000000
H     6.272000000    -2.333000000     0.228000000
H     5.898000000    -3.002000000    -1.078000000
O    -2.247000000     2.380000000    -1.566000000
H    -1.765000000     3.056000000    -2.042000000
H    -2.305000000     1.649000000    -2.181000000
O    -0.505000000    -5.029000000    -1.585000000
H     0.081000000    -5.547000000    -2.136000000
H     0.080000000    -4.508000000    -1.036000000
O     5.057000000    -0.368000000    -3.440000000
H     4.227000000    -0.541000000    -2.995000000
H     4.882000000    -0.568000000    -4.360000000
O     4.359000000     3.163000000    -0.675000000
H     4.526000000     3.256000000    -1.612000000
H     3.755000000     2.423000000    -0.612000000
O    -3.839000000    -3.833000000     5.557000000
H    -4.255000000    -3.394000000     4.815000000
H    -3.823000000    -4.757000000     5.311000000
O     2.554000000     2.760000000    -5.294000000
H     2.951000000     2.634000000    -6.156000000
H     1.978000000     2.004000000    -5.183000000
O     1.249000000    -2.685000000     4.121000000
H     0.363000000    -2.439000000     4.385000000
H     1.309000000    -3.618000000     4.327000000
O    -5.022000000     2.512000000     1.323000000
H    -5.635000000     2.843000000     1.980000000
H    -5.068000000     1.560000000     1.413000000
O    -6.227000000     2.612000000     4.196000000
H    -5.316000000     2.374000000     4.370000000
H    -6.414000000     3.316000000     4.816000000
O    -2.810000000     3.924000000     2.285000000
H    -3.506000000     3.325000000     2.016000000
H    -2.123000000     3.802000000     1.629000000
O     4.640000000    -0.458000000     0.183000000
H     4.297000000     0.191000000    -0.431000000
H     3.861000000    -0.884000000     0.541000000
O    -0.611000000     3.489000000     0.746000000
H     0.031000000     3.295000000     1.429000000
H    -0.622000000     2.704000000     0.198000000
O     4.956000000     2.726000000    -3.508000000
H     5.376000000     1.887000000    -3.318000000
H     4.130000000     2.489000000    -3.931000000
O     0.337000000    -3.382000000    -6.652000000
H     0.523000000    -2.602000000    -7.175000000
H     0.574000000    -3.133000000    -5.759000000
O     5.018000000     5.344000000    -3.498000000
H     5.757000000     5.528000000    -2.918000000
H     5.044000000     4.395000000    -3.624000000
O    -4.723000000    -2.446000000     3.367000000
H    -4.375000000    -2.667000000     2.504000000
H    -5.605000000    -2.818000000     3.373000000
O    -0.361000000     2.113000000     5.296000000
H    -0.440000000     2.378000000     6.213000000
H    -1.256000000     1.911000000     5.026000000
O     6.586000000     0.635000000     1.915000000
H     7.465000000     0.422000000     1.602000000
H     6.009000000     0.388000000     1.192000000
O     0.620000000    -2.759000000     0.334000000
H     0.071000000    -3.303000000     0.899000000
H     0.117000000    -1.954000000     0.213000000
O    -6.271000000     0.077000000     3.046000000
H    -6.141000000     0.897000000     3.522000000
H    -6.039000000    -0.606000000     3.675000000
O     4.607000000     4.993000000     1.179000000
H     3.684000000     5.205000000     1.319000000
H     4.604000000     4.386000000     0.439000000
O    -1.084000000    -3.681000000     5.137000000
H    -0.845000000    -3.357000000     6.006000000
H    -2.016000000    -3.887000000     5.206000000
O    -1.127000000    -0.781000000    -5.011000000
H    -1.077000000     0.129000000    -5.304000000
H    -2.058000000    -0.997000000    -5.060000000
O     2.954000000    -3.197000000    -1.734000000
H     3.067000000    -2.614000000    -2.485000000
H     2.351000000    -2.729000000    -1.157000000
O     1.830000000     0.183000000    -5.101000000
H     2.017000000    -0.217000000    -4.251000000
H     0.885000000     0.083000000    -5.210000000
O     7.400000000     0.534000000    -2.294000000
H     6.608000000     0.111000000    -2.625000000
H     7.592000000     1.218000000    -2.935000000
O     2.854000000    -1.880000000     1.978000000
H     2.112000000    -2.324000000     1.570000000
H     2.633000000    -1.850000000     2.909000000
O    -5.034000000    -4.831000000     0.817000000
H    -4.249000000    -5.358000000     0.673000000
H    -4.711000000    -3.932000000     0.882000000
O    -3.604000000    -2.169000000    -4.308000000
H    -4.471000000    -2.451000000    -4.019000000
H    -3.474000000    -2.615000000    -5.145000000
O     1.654000000    -2.875000000    -4.314000000
H     1.589000000    -3.620000000    -3.717000000
H     1.793000000    -2.120000000    -3.742000000
O     0.936000000     3.382000000     2.878000000
H     1.395000000     4.116000000     3.286000000
H     0.380000000     3.031000000     3.574000000
O    -3.209000000     1.116000000    -3.906000000
H    -3.538000000     0.237000000    -3.717000000
H    -3.926000000     1.544000000    -4.375000000
O     1.746000000     0.528000000     5.372000000
H     0.964000000     1.077000000     5.428000000
H     2.375000000     1.057000000     4.881000000
O    -4.095000000    -2.427000000     0.170000000
H    -4.123000000    -1.471000000     0.221000000
H    -3.503000000    -2.610000000    -0.559000000
O    -3.068000000     2.216000000     4.567000000
H    -2.658000000     2.869000000     4.001000000
H    -3.395000000     2.717000000     5.314000000
O    -2.642000000    -3.221000000    -1.970000000
H    -2.489000000    -2.737000000    -2.782000000
H    -2.009000000    -3.937000000    -1.995000000
O    -5.709000000     0.156000000    -0.487000000
H    -5.985000000     0.436000000    -1.360000000
H    -6.431000000     0.414000000     0.086000000
O    -1.012000000     2.328000000    -5.250000000
H    -1.637000000     1.838000000    -4.714000000
H    -1.496000000     2.539000000    -6.048000000
O    -7.854000000     0.903000000     1.255000000
H    -8.661000000     0.451000000     1.499000000
H    -7.192000000     0.551000000     1.851000000
O     4.391000000    -0.263000000    -5.992000000
H     3.449000000    -0.186000000    -5.839000000
H     4.588000000     0.426000000    -6.627000000
