144
-2814.44979
O     2.454000000     1.081000000     4.452000000
H     1.703000000     1.530000000     4.064000000
H     2.069000000     0.379000000     4.977000000
O     1.024000000    -0.443000000     6.093000000
H     0.183000000    -0.068000000     6.355000000
H     1.250000000    -1.044000000     6.804000000
O    -4.399000000     3.122000000     3.089000000
H    -4.504000000     4.072000000     3.032000000
H    -4.343000000     2.943000000     4.027000000
O     3.318000000    -0.850000000    -5.094000000
H     3.054000000    -0.109000000    -4.549000000
H     3.265000000    -0.519000000    -5.990000000
O     6.782000000     3.788000000    -1.469000000
H     6.217000000     4.260000000    -2.081000000
H     6.233000000     3.079000000    -1.135000000
O    -5.275000000     1.090000000     1.561000000
H    -4.624000000     1.450000000     0.959000000
H    -5.329000000     1.732000000     2.268000000
O     1.235000000    -2.424000000     4.046000000
H     0.591000000    -1.961000000     4.581000000
H     0.770000000    -2.628000000     3.235000000
O    -2.248000000    -4.637000000     1.132000000
H    -2.444000000    -5.569000000     1.039000000
H    -2.353000000    -4.280000000     0.250000000
O     3.921000000     1.892000000    -4.644000000
H     3.265000000     2.101000000    -5.309000000
H     3.411000000     1.688000000    -3.860000000
O     1.086000000    -2.513000000    -3.519000000
H     1.542000000    -3.131000000    -4.092000000
H     1.194000000    -1.664000000    -3.948000000
O     2.694000000     0.288000000    -7.609000000
H     3.184000000     0.882000000    -8.177000000
H     1.929000000     0.038000000    -8.126000000
O     0.226000000    -4.017000000     1.907000000
H     0.217000000    -4.631000000     2.641000000
H    -0.674000000    -4.019000000     1.581000000
O    -4.790000000    -1.979000000     2.412000000
H    -4.678000000    -1.748000000     3.334000000
H    -4.984000000    -1.148000000     1.979000000
O     2.209000000     5.616000000    -4.518000000
H     1.374000000     5.287000000    -4.850000000
H     1.980000000     6.084000000    -3.715000000
O     4.205000000    -3.439000000    -0.786000000
H     4.437000000    -2.636000000    -0.320000000
H     3.249000000    -3.418000000    -0.837000000
O     2.219000000     3.214000000    -6.512000000
H     1.542000000     3.791000000    -6.161000000
H     1.827000000     2.837000000    -7.300000000
O    -0.908000000     2.551000000    -3.022000000
H    -0.353000000     2.931000000    -2.341000000
H    -0.346000000     1.908000000    -3.456000000
O    -0.879000000    -4.490000000    -3.682000000
H    -0.473000000    -4.942000000    -2.943000000
H    -0.393000000    -3.669000000    -3.758000000
O     4.788000000     4.468000000    -4.029000000
H     3.959000000     4.944000000    -4.074000000
H     4.561000000     3.568000000    -4.263000000
O     4.004000000    -2.528000000     3.932000000
H     4.354000000    -2.040000000     4.678000000
H     3.070000000    -2.315000000     3.925000000
O    -0.139000000     4.356000000    -5.468000000
H    -0.217000000     3.939000000    -4.610000000
H    -0.943000000     4.868000000    -5.559000000
O    -3.519000000     1.709000000    -0.554000000
H    -2.658000000     1.379000000    -0.295000000
H    -3.391000000     2.650000000    -0.668000000
O    -0.073000000     4.910000000    -1.662000000
H     0.054000000     5.605000000    -2.307000000
H    -0.003000000     5.352000000    -0.816000000
O     4.366000000     2.965000000    -0.783000000
H     3.844000000     3.734000000    -0.555000000
H     3.800000000     2.455000000    -1.363000000
O     5.035000000    -0.056000000    -1.542000000
H     5.157000000    -0.620000000    -2.306000000
H     4.344000000     0.553000000    -1.802000000
O    -1.110000000    -1.574000000    -6.122000000
H    -1.940000000    -1.098000000    -6.124000000
H    -0.441000000    -0.889000000    -6.141000000
O     6.500000000     1.371000000    -5.812000000
H     5.647000000     1.108000000    -5.466000000
H     6.664000000     2.228000000    -5.419000000
O    -5.677000000    -4.629000000     2.001000000
H    -5.503000000    -3.691000000     1.935000000
H    -4.859000000    -5.045000000     1.727000000
O    -1.635000000     2.697000000     2.076000000
H    -1.655000000     3.308000000     1.339000000
H    -2.540000000     2.397000000     2.163000000
O    -3.400000000    -1.220000000     4.804000000
H    -2.781000000    -0.969000000     5.490000000
H    -3.072000000    -2.059000000     4.481000000
O    -2.379000000    -3.882000000     3.909000000
H    -2.450000000    -4.074000000     2.974000000
H    -2.168000000    -4.724000000     4.311000000
O     5.146000000    -1.770000000     1.722000000
H     5.053000000    -0.818000000     1.755000000
H     4.735000000    -2.079000000     2.530000000
O     2.468000000     4.412000000     4.679000000
H     1.741000000     3.826000000     4.465000000
H     3.109000000     4.261000000     3.984000000
O    -6.265000000    -0.773000000    -0.190000000
H    -5.703000000    -0.242000000     0.375000000
H    -5.655000000    -1.254000000    -0.749000000
O     0.537000000     5.449000000     1.191000000
H     0.861000000     6.349000000     1.237000000
H     1.327000000     4.909000000     1.184000000
O     0.605000000     0.574000000    -6.003000000
H     0.920000000     0.581000000    -5.100000000
H     1.223000000     1.131000000    -6.477000000
O     0.220000000     2.572000000     4.200000000
H    -0.185000000     2.774000000     3.356000000
H    -0.516000000     2.353000000     4.772000000
O     1.544000000    -2.842000000    -0.350000000
H     1.200000000    -2.858000000     0.543000000
H     1.468000000    -1.927000000    -0.620000000
O    -2.762000000    -4.230000000    -1.720000000
H    -3.162000000    -5.090000000    -1.850000000
H    -2.260000000    -4.075000000    -2.520000000
O     4.887000000    -2.320000000    -3.441000000
H     4.180000000    -1.968000000    -3.981000000
H     4.450000000    -2.914000000    -2.831000000
O     4.256000000     3.866000000     2.489000000
H     4.867000000     4.409000000     2.986000000
H     4.158000000     4.321000000     1.652000000
O     4.648000000     0.969000000     2.425000000
H     4.429000000     1.797000000     1.997000000
H     4.144000000     0.979000000     3.238000000
O     6.925000000     0.758000000     0.534000000
H     6.426000000     0.790000000     1.350000000
H     6.262000000     0.661000000    -0.149000000
O    -4.675000000    -1.991000000    -2.200000000
H    -5.473000000    -2.518000000    -2.239000000
H    -3.989000000    -2.571000000    -2.531000000
O     3.172000000     5.211000000    -0.377000000
H     2.521000000     5.723000000    -0.856000000
H     3.951000000     5.768000000    -0.362000000
O    -4.622000000     1.023000000    -2.800000000
H    -4.166000000     1.361000000    -2.029000000
H    -4.628000000     0.074000000    -2.679000000
O    -3.192000000     2.363000000    -4.771000000
H    -3.862000000     2.068000000    -4.155000000
H    -2.377000000     2.333000000    -4.271000000
O    -1.502000000     0.350000000     6.648000000
H    -1.560000000     1.304000000     6.600000000
H    -2.170000000     0.101000000     7.287000000
