144
-2805.49324
O     1.513000000     5.541000000     0.392000000
H     1.637000000     4.802000000    -0.204000000
H     0.704000000     5.336000000     0.862000000
O     2.312000000    -0.860000000    -5.356000000
H     2.452000000    -0.048000000    -4.868000000
H     1.723000000    -1.373000000    -4.804000000
O    -2.128000000     4.350000000    -2.782000000
H    -1.396000000     3.877000000    -3.177000000
H    -2.744000000     4.484000000    -3.502000000
O     4.255000000    -2.998000000    -3.610000000
H     3.570000000    -2.850000000    -2.959000000
H     4.676000000    -2.145000000    -3.715000000
O     4.156000000    -3.570000000     3.388000000
H     4.622000000    -3.381000000     4.203000000
H     3.231000000    -3.481000000     3.615000000
O    -3.696000000     3.734000000    -0.689000000
H    -2.985000000     4.073000000    -1.233000000
H    -3.621000000     4.220000000     0.133000000
O    -0.495000000    -3.120000000    -5.387000000
H    -0.105000000    -3.962000000    -5.150000000
H    -0.111000000    -2.496000000    -4.772000000
O     1.494000000     2.778000000    -0.614000000
H     0.712000000     2.268000000    -0.401000000
H     1.199000000     3.404000000    -1.275000000
O     2.414000000    -7.366000000    -2.791000000
H     1.897000000    -7.857000000    -2.153000000
H     2.392000000    -6.463000000    -2.474000000
O     0.971000000     1.625000000    -3.798000000
H     1.072000000     0.726000000    -3.484000000
H     0.024000000     1.760000000    -3.833000000
O    -3.546000000    -2.240000000    -2.834000000
H    -3.463000000    -2.328000000    -1.885000000
H    -2.749000000    -1.783000000    -3.103000000
O     5.322000000    -0.359000000    -4.126000000
H     6.252000000    -0.133000000    -4.107000000
H     4.879000000     0.416000000    -3.780000000
O     3.209000000    -3.703000000    -0.208000000
H     2.835000000    -3.165000000    -0.906000000
H     4.147000000    -3.720000000    -0.395000000
O    -2.316000000     0.157000000     6.052000000
H    -2.142000000    -0.173000000     6.934000000
H    -3.234000000    -0.062000000     5.892000000
O     0.601000000     0.777000000    -7.377000000
H     0.403000000     1.712000000    -7.329000000
H     0.726000000     0.511000000    -6.466000000
O     4.142000000    -0.426000000    -1.174000000
H     4.952000000    -0.651000000    -1.632000000
H     3.491000000    -1.034000000    -1.526000000
O     5.953000000    -3.506000000    -1.118000000
H     6.395000000    -4.353000000    -1.064000000
H     6.646000000    -2.890000000    -1.358000000
O     5.846000000    -1.773000000     1.641000000
H     5.403000000    -2.447000000     2.155000000
H     5.932000000    -2.155000000     0.768000000
O    -3.339000000     3.773000000     3.768000000
H    -3.533000000     4.309000000     2.999000000
H    -3.940000000     3.031000000     3.700000000
O     2.841000000     4.840000000     3.900000000
H     3.263000000     5.585000000     4.328000000
H     2.241000000     4.493000000     4.560000000
O    -1.865000000     1.519000000    -4.371000000
H    -2.017000000     0.718000000    -4.871000000
H    -2.688000000     1.670000000    -3.905000000
O     3.736000000     1.542000000     0.868000000
H     3.024000000     2.000000000     0.422000000
H     3.805000000     0.704000000     0.412000000
O    -4.681000000    -1.746000000     3.276000000
H    -4.212000000    -2.539000000     3.532000000
H    -5.323000000    -1.611000000     3.973000000
O     0.801000000     4.470000000     5.585000000
H     0.751000000     5.021000000     6.365000000
H     0.555000000     3.597000000     5.891000000
O    -2.623000000    -0.836000000    -5.450000000
H    -3.396000000    -1.296000000    -5.777000000
H    -1.892000000    -1.417000000    -5.660000000
O    -1.389000000     2.681000000     5.741000000
H    -1.994000000     3.102000000     5.131000000
H    -1.716000000     1.785000000     5.822000000
O    -2.357000000    -4.130000000    -7.273000000
H    -1.853000000    -3.781000000    -6.538000000
H    -2.567000000    -3.363000000    -7.806000000
O     0.505000000    -1.992000000    -7.741000000
H     0.777000000    -1.093000000    -7.554000000
H     0.431000000    -2.404000000    -6.880000000
O     1.734000000     0.174000000     5.387000000
H     2.608000000     0.019000000     5.744000000
H     1.892000000     0.584000000     4.537000000
O     3.771000000     1.983000000    -3.843000000
H     2.815000000     2.013000000    -3.846000000
H     4.029000000     2.625000000    -3.181000000
O    -0.843000000    -3.247000000     2.796000000
H    -0.381000000    -3.791000000     2.158000000
H    -0.891000000    -2.384000000     2.384000000
O    -0.007000000     5.533000000     2.973000000
H    -0.780000000     5.028000000     2.719000000
H     0.219000000     5.204000000     3.843000000
O     0.936000000    -4.649000000     1.006000000
H     1.766000000    -4.183000000     0.903000000
H     1.086000000    -5.500000000     0.596000000
O     2.623000000    -4.598000000    -5.144000000
H     3.155000000    -4.070000000    -4.549000000
H     1.924000000    -4.949000000    -4.593000000
O    -1.470000000    -4.650000000    -1.239000000
H    -0.708000000    -4.768000000    -0.672000000
H    -2.141000000    -4.283000000    -0.663000000
O    -4.130000000     2.035000000    -3.133000000
H    -5.063000000     1.947000000    -3.329000000
H    -4.102000000     2.306000000    -2.216000000
O     0.049000000    -2.050000000     5.911000000
H    -0.799000000    -1.862000000     5.508000000
H     0.536000000    -1.229000000     5.840000000
O     1.061000000     2.191000000     7.430000000
H     0.681000000     1.690000000     8.152000000
H     1.002000000     1.607000000     6.675000000
O     6.453000000    -4.915000000    -3.686000000
H     6.490000000    -5.347000000    -2.833000000
H     5.736000000    -4.286000000    -3.605000000
O    -6.248000000     2.989000000     0.071000000
H    -6.043000000     2.054000000     0.072000000
H    -5.394000000     3.421000000     0.090000000
O     3.444000000     2.131000000     3.675000000
H     3.121000000     1.923000000     2.799000000
H     3.420000000     3.087000000     3.719000000
O    -5.648000000    -0.057000000     1.400000000
H    -6.142000000    -0.614000000     0.799000000
H    -5.088000000    -0.664000000     1.884000000
O     4.504000000    -0.214000000    -6.732000000
H     3.625000000    -0.460000000    -6.444000000
H     5.028000000    -0.217000000    -5.932000000
O     0.046000000    -5.424000000    -3.956000000
H    -0.878000000    -5.255000000    -3.771000000
H     0.156000000    -6.360000000    -3.793000000
O    -3.469000000    -2.623000000     0.031000000
H    -4.362000000    -2.783000000     0.337000000
H    -3.154000000    -1.903000000     0.577000000
O    -5.186000000     1.863000000     3.646000000
H    -6.069000000     1.889000000     4.016000000
H    -5.269000000     1.311000000     2.868000000
O    -4.117000000     5.115000000     1.502000000
H    -3.619000000     5.931000000     1.546000000
H    -5.033000000     5.391000000     1.532000000
O     1.730000000    -3.628000000     4.144000000
H     0.928000000    -3.208000000     3.835000000
H     1.573000000    -3.790000000     5.074000000
