144
-2800.30035
O     3.420000000     3.981000000     1.727000000
H     3.061000000     4.758000000     2.154000000
H     3.413000000     4.195000000     0.794000000
O     3.393000000    -5.833000000    -6.246000000
H     4.077000000    -6.408000000    -5.903000000
H     3.179000000    -5.253000000    -5.514000000
O    -1.108000000     3.323000000    -2.810000000
H    -1.640000000     3.684000000    -2.101000000
H    -1.055000000     4.029000000    -3.454000000
O     2.768000000    -4.368000000    -3.930000000
H     2.409000000    -4.667000000    -3.095000000
H     2.314000000    -3.543000000    -4.104000000
O    -2.229000000     4.770000000    -0.761000000
H    -3.135000000     4.651000000    -1.047000000
H    -2.294000000     5.319000000     0.020000000
O    -5.144000000    -1.882000000    -3.923000000
H    -4.331000000    -2.254000000    -4.263000000
H    -5.836000000    -2.366000000    -4.375000000
O    -0.749000000    -3.414000000    -5.579000000
H    -1.668000000    -3.211000000    -5.751000000
H    -0.524000000    -2.876000000    -4.820000000
O    -4.528000000     4.361000000     3.734000000
H    -4.967000000     4.744000000     2.974000000
H    -4.976000000     3.527000000     3.875000000
O     0.994000000     2.398000000    -1.566000000
H     0.184000000     2.574000000    -2.044000000
H     0.713000000     1.920000000    -0.786000000
O     1.778000000    -5.110000000    -0.586000000
H     1.486000000    -5.956000000    -0.924000000
H     1.283000000    -4.466000000    -1.093000000
O     1.104000000     6.138000000     4.237000000
H     0.929000000     5.751000000     5.095000000
H     1.369000000     7.038000000     4.431000000
O     2.414000000     1.664000000    -4.789000000
H     3.020000000     2.378000000    -4.990000000
H     2.255000000     1.744000000    -3.849000000
O    -2.361000000    -4.206000000    -1.694000000
H    -1.744000000    -3.764000000    -2.277000000
H    -2.608000000    -5.002000000    -2.166000000
O    -3.131000000    -1.581000000     2.560000000
H    -2.276000000    -2.005000000     2.629000000
H    -3.499000000    -1.914000000     1.741000000
O    -3.788000000    -2.675000000     0.191000000
H    -4.448000000    -2.173000000    -0.287000000
H    -3.264000000    -3.093000000    -0.493000000
O    -2.603000000     1.140000000     5.803000000
H    -2.753000000     2.051000000     6.058000000
H    -3.022000000     1.059000000     4.946000000
O     3.816000000    -1.547000000    -3.543000000
H     4.270000000    -1.972000000    -2.816000000
H     2.887000000    -1.626000000    -3.324000000
O     3.622000000    -3.233000000     0.793000000
H     3.024000000    -3.523000000     1.482000000
H     3.558000000    -3.909000000     0.120000000
O     1.029000000     5.801000000     1.596000000
H     1.063000000     5.510000000     2.507000000
H     0.441000000     6.557000000     1.608000000
O     7.081000000     1.040000000    -0.974000000
H     6.510000000     1.791000000    -0.811000000
H     6.578000000     0.286000000    -0.668000000
O    -4.220000000    -4.745000000    -5.465000000
H    -4.804000000    -5.497000000    -5.562000000
H    -3.669000000    -4.965000000    -4.715000000
O    -2.999000000    -2.160000000    -6.961000000
H    -3.852000000    -2.117000000    -7.393000000
H    -2.529000000    -2.851000000    -7.427000000
O     3.613000000     1.215000000    -2.376000000
H     2.769000000     1.336000000    -1.940000000
H     3.534000000     0.371000000    -2.820000000
O    -6.213000000    -0.325000000     1.994000000
H    -5.367000000    -0.605000000     1.645000000
H    -6.683000000    -1.141000000     2.166000000
O    -1.968000000    -0.496000000    -4.979000000
H    -2.065000000    -1.001000000    -5.787000000
H    -1.495000000    -1.081000000    -4.386000000
O    -2.917000000     4.032000000     5.923000000
H    -2.050000000     4.295000000     5.615000000
H    -3.500000000     4.220000000     5.187000000
O     0.954000000    -2.784000000    -7.504000000
H     1.381000000    -2.046000000    -7.069000000
H     0.299000000    -3.087000000    -6.875000000
O    -3.007000000    -6.158000000    -3.265000000
H    -3.173000000    -6.766000000    -2.544000000
H    -2.261000000    -6.537000000    -3.730000000
O     4.107000000     0.625000000     3.642000000
H     3.751000000     0.990000000     2.832000000
H     4.678000000    -0.086000000     3.354000000
O     6.327000000     0.046000000    -4.271000000
H     5.376000000     0.076000000    -4.165000000
H     6.670000000     0.452000000    -3.475000000
O     0.159000000     0.419000000     6.367000000
H    -0.691000000     0.492000000     5.931000000
H     0.374000000     1.317000000     6.622000000
O    -5.567000000    -0.988000000    -1.211000000
H    -5.276000000    -1.220000000    -2.093000000
H    -6.374000000    -1.488000000    -1.085000000
O     6.353000000    -2.897000000     1.559000000
H     6.212000000    -2.358000000     2.337000000
H     5.521000000    -3.351000000     1.427000000
O    -5.388000000     3.436000000    -3.123000000
H    -6.324000000     3.252000000    -3.199000000
H    -5.114000000     2.968000000    -2.335000000
O     2.637000000    -1.111000000     5.278000000
H     2.110000000    -0.536000000     5.833000000
H     2.960000000    -0.541000000     4.580000000
O    -2.685000000     2.229000000    -4.856000000
H    -2.383000000     1.322000000    -4.808000000
H    -2.034000000     2.724000000    -4.359000000
O     3.733000000     3.263000000     5.678000000
H     3.604000000     2.662000000     6.412000000
H     3.640000000     2.714000000     4.899000000
O    -5.042000000     4.538000000    -0.221000000
H    -5.960000000     4.603000000     0.043000000
H    -4.744000000     3.709000000     0.153000000
O     5.914000000     2.899000000     1.115000000
H     6.279000000     3.588000000     0.560000000
H     5.171000000     3.313000000     1.554000000
O     2.185000000     5.012000000    -0.673000000
H     1.810000000     4.139000000    -0.791000000
H     1.735000000     5.365000000     0.095000000
O     4.947000000    -1.497000000    -0.741000000
H     4.589000000    -0.722000000    -0.308000000
H     4.468000000    -2.230000000    -0.354000000
O    -5.599000000     1.894000000    -0.488000000
H    -6.386000000     1.574000000    -0.048000000
H    -5.204000000     1.111000000    -0.872000000
O    -5.392000000     0.722000000    -4.947000000
H    -4.799000000     1.192000000    -4.360000000
H    -5.354000000    -0.187000000    -4.649000000
O     2.297000000    -0.658000000    -6.101000000
H     2.116000000     0.192000000    -5.698000000
H     2.644000000    -1.192000000    -5.387000000
O     0.408000000    -5.823000000    -6.608000000
H     0.069000000    -5.019000000    -6.214000000
H     1.336000000    -5.643000000    -6.757000000
O     4.467000000     0.842000000     0.248000000
H     4.303000000     1.195000000    -0.626000000
H     4.901000000     1.555000000     0.717000000
O     5.111000000    -5.132000000    -2.808000000
H     5.677000000    -5.107000000    -3.579000000
H     4.225000000    -5.046000000    -3.158000000
O     0.741000000    -3.833000000     4.726000000
H     0.231000000    -3.984000000     5.522000000
H     1.334000000    -3.117000000     4.954000000
