144
-2784.97430
O    -3.647000000     3.309000000     3.784000000
H    -4.069000000     2.626000000     3.263000000
H    -4.366000000     3.724000000     4.261000000
O     2.273000000    -5.284000000    -0.479000000
H     2.268000000    -4.488000000    -1.011000000
H     2.283000000    -5.998000000    -1.116000000
O     0.671000000     1.858000000    -3.553000000
H    -0.079000000     1.949000000    -2.966000000
H     0.316000000     2.033000000    -4.425000000
O    -0.146000000    -3.556000000    -3.121000000
H     0.646000000    -3.521000000    -2.585000000
H    -0.255000000    -2.663000000    -3.446000000
O     0.037000000     5.696000000     3.196000000
H     0.269000000     4.779000000     3.342000000
H    -0.642000000     5.877000000     3.846000000
O    -6.768000000     2.926000000     2.898000000
H    -6.046000000     2.342000000     2.667000000
H    -6.854000000     2.837000000     3.848000000
O     3.037000000    -4.790000000     3.230000000
H     2.758000000    -4.092000000     2.637000000
H     2.277000000    -4.948000000     3.789000000
O    -5.206000000     6.476000000     0.739000000
H    -6.044000000     6.501000000     1.202000000
H    -5.138000000     5.577000000     0.416000000
O     5.774000000     3.423000000    -0.603000000
H     6.314000000     3.880000000    -1.248000000
H     5.364000000     2.711000000    -1.095000000
O     3.039000000    -1.542000000    -4.873000000
H     3.146000000    -0.781000000    -4.302000000
H     3.119000000    -2.294000000    -4.287000000
O    -2.694000000    -4.743000000    -3.332000000
H    -3.129000000    -4.542000000    -2.503000000
H    -1.814000000    -4.378000000    -3.236000000
O    -2.102000000     1.627000000    -3.069000000
H    -2.417000000     2.493000000    -3.327000000
H    -2.764000000     1.303000000    -2.460000000
O    -1.431000000     0.682000000     4.423000000
H    -2.229000000     0.153000000     4.430000000
H    -1.679000000     1.495000000     4.863000000
O     4.979000000    -2.322000000     0.414000000
H     4.502000000    -1.541000000     0.134000000
H     5.067000000    -2.847000000    -0.381000000
O     7.001000000    -2.545000000    -3.101000000
H     6.183000000    -2.874000000    -2.731000000
H     6.745000000    -1.761000000    -3.588000000
O    -0.866000000    -2.944000000     3.490000000
H    -1.378000000    -3.221000000     2.730000000
H    -0.269000000    -2.278000000     3.147000000
O     4.696000000    -3.670000000    -2.491000000
H     4.037000000    -2.977000000    -2.449000000
H     4.201000000    -4.459000000    -2.710000000
O     3.099000000     5.520000000    -1.170000000
H     4.012000000     5.250000000    -1.261000000
H     2.940000000     5.516000000    -0.226000000
O     5.444000000    -2.077000000     3.359000000
H     5.945000000    -2.893000000     3.378000000
H     5.080000000    -2.040000000     2.474000000
O     5.104000000    -5.709000000     0.325000000
H     5.305000000    -5.874000000    -0.596000000
H     4.220000000    -5.340000000     0.316000000
O     4.743000000     0.956000000    -1.614000000
H     4.433000000     0.054000000    -1.535000000
H     4.495000000     1.218000000    -2.500000000
O    -5.385000000    -2.576000000    -3.290000000
H    -4.643000000    -2.473000000    -2.694000000
H    -5.189000000    -1.990000000    -4.020000000
O    -3.415000000    -1.083000000     4.079000000
H    -3.611000000    -1.947000000     3.717000000
H    -4.097000000    -0.514000000     3.722000000
O     2.393000000     6.129000000     1.671000000
H     2.808000000     6.442000000     2.475000000
H     1.498000000     5.911000000     1.932000000
O    -1.059000000    -1.213000000    -4.200000000
H    -1.034000000    -0.334000000    -3.820000000
H    -1.529000000    -1.103000000    -5.026000000
O     0.477000000     2.411000000     3.908000000
H    -0.160000000     1.700000000     3.976000000
H     0.386000000     2.893000000     4.730000000
O    -2.403000000     6.092000000     4.419000000
H    -2.673000000     5.188000000     4.263000000
H    -2.932000000     6.609000000     3.811000000
O    -0.074000000     7.056000000    -1.120000000
H     0.534000000     7.795000000    -1.131000000
H     0.478000000     6.290000000    -1.275000000
O    -2.651000000    -4.725000000     1.375000000
H    -1.796000000    -5.046000000     1.087000000
H    -3.248000000    -5.455000000     1.209000000
O    -3.577000000    -3.439000000    -0.834000000
H    -4.486000000    -3.416000000    -0.534000000
H    -3.099000000    -3.855000000    -0.116000000
O     3.369000000     1.702000000    -3.773000000
H     2.491000000     1.742000000    -3.394000000
H     3.427000000     2.480000000    -4.328000000
O    -5.787000000    -3.568000000     0.387000000
H    -5.992000000    -4.342000000     0.911000000
H    -6.551000000    -3.000000000     0.487000000
O    -0.301000000    -5.814000000     0.477000000
H    -0.306000000    -6.725000000     0.769000000
H     0.590000000    -5.670000000     0.158000000
O    -4.074000000     4.060000000     0.069000000
H    -3.393000000     4.704000000     0.262000000
H    -3.770000000     3.256000000     0.491000000
O     0.914000000    -5.001000000    -5.144000000
H     1.824000000    -5.240000000    -4.966000000
H     0.655000000    -4.468000000    -4.393000000
O    -7.985000000     1.041000000    -0.497000000
H    -7.081000000     1.050000000    -0.183000000
H    -7.942000000     0.591000000    -1.340000000
O    -5.245000000     1.918000000    -3.206000000
H    -5.539000000     2.821000000    -3.088000000
H    -5.206000000     1.801000000    -4.155000000
O     0.930000000    -0.619000000     5.750000000
H     0.250000000    -0.239000000     5.193000000
H     1.673000000    -0.755000000     5.162000000
O     2.081000000    -0.065000000     2.351000000
H     1.699000000    -0.384000000     1.533000000
H     1.659000000     0.781000000     2.498000000
O     0.732000000     4.552000000    -2.343000000
H     0.586000000     3.657000000    -2.649000000
H     1.665000000     4.583000000    -2.129000000
O    -5.074000000     0.804000000    -0.555000000
H    -5.154000000     1.257000000    -1.395000000
H    -4.426000000     0.117000000    -0.715000000
O     4.453000000     0.893000000     1.883000000
H     3.584000000     0.881000000     2.284000000
H     4.286000000     1.053000000     0.954000000
O    -3.270000000    -0.944000000    -1.894000000
H    -3.010000000    -1.822000000    -1.614000000
H    -2.699000000    -0.750000000    -2.637000000
O    -1.849000000     5.419000000     0.495000000
H    -1.247000000     5.893000000    -0.079000000
H    -1.422000000     5.429000000     1.351000000
O    -4.319000000    -3.420000000     3.017000000
H    -3.990000000    -3.865000000     2.235000000
H    -5.010000000    -3.994000000     3.347000000
O    -5.016000000     0.988000000     2.098000000
H    -5.476000000     0.294000000     2.569000000
H    -4.978000000     0.679000000     1.193000000
O     3.426000000    -5.893000000    -4.191000000
H     4.323000000    -5.914000000    -4.523000000
H     3.432000000    -6.497000000    -3.448000000
O     1.075000000    -3.466000000     1.502000000
H     0.452000000    -4.192000000     1.489000000
H     1.529000000    -3.525000000     0.660000000
