144
-2820.53448
O     0.643000000     1.063000000     5.810000000
H    -0.183000000     1.378000000     6.177000000
H     1.287000000     1.722000000     6.068000000
O     4.666000000    -6.135000000    -0.030000000
H     4.104000000    -6.655000000     0.546000000
H     4.574000000    -5.239000000     0.292000000
O    -4.170000000    -2.011000000    -2.043000000
H    -3.809000000    -2.747000000    -1.548000000
H    -4.610000000    -2.418000000    -2.789000000
O     1.144000000    -6.720000000    -3.677000000
H     1.837000000    -7.120000000    -3.152000000
H     1.461000000    -5.835000000    -3.858000000
O     3.194000000     0.727000000    -4.170000000
H     3.153000000     1.530000000    -4.689000000
H     2.476000000     0.809000000    -3.543000000
O     4.096000000    -3.570000000     0.618000000
H     4.974000000    -3.394000000     0.280000000
H     3.507000000    -3.257000000    -0.069000000
O     2.828000000    -1.806000000     2.833000000
H     2.533000000    -0.896000000     2.859000000
H     3.009000000    -1.972000000     1.908000000
O    -4.590000000    -2.915000000    -5.087000000
H    -3.859000000    -2.304000000    -5.177000000
H    -5.044000000    -2.871000000    -5.929000000
O     1.735000000    -1.879000000    -6.612000000
H     1.051000000    -1.528000000    -7.183000000
H     1.300000000    -2.011000000    -5.770000000
O     3.933000000     5.048000000    -0.576000000
H     3.245000000     4.892000000     0.071000000
H     3.682000000     4.510000000    -1.327000000
O     0.277000000    -8.747000000    -1.725000000
H     0.278000000    -7.792000000    -1.656000000
H    -0.076000000    -9.047000000    -0.887000000
O     1.234000000     6.548000000     3.141000000
H     0.665000000     6.008000000     3.689000000
H     0.894000000     7.436000000     3.244000000
O     3.971000000    -1.876000000    -3.385000000
H     3.576000000    -2.114000000    -2.547000000
H     3.650000000    -0.991000000    -3.559000000
O    -3.924000000    -2.970000000     3.458000000
H    -3.123000000    -3.053000000     3.975000000
H    -3.757000000    -2.231000000     2.874000000
O    -1.530000000     3.094000000    -3.025000000
H    -1.991000000     2.256000000    -2.973000000
H    -2.194000000     3.714000000    -3.326000000
O     2.816000000    -3.661000000     4.669000000
H     2.616000000    -2.967000000     4.041000000
H     3.721000000    -3.492000000     4.933000000
O     4.982000000    -1.877000000     5.213000000
H     5.851000000    -2.221000000     5.004000000
H     4.669000000    -1.500000000     4.391000000
O    -1.426000000    -7.849000000    -3.885000000
H    -0.582000000    -7.570000000    -3.531000000
H    -1.312000000    -8.782000000    -4.066000000
O     1.803000000     3.604000000    -2.022000000
H     1.368000000     2.756000000    -1.940000000
H     1.089000000     4.241000000    -2.018000000
O     6.294000000    -3.235000000    -1.169000000
H     6.805000000    -4.009000000    -1.406000000
H     6.246000000    -2.724000000    -1.977000000
O     4.884000000     1.459000000    -0.930000000
H     5.632000000     1.132000000    -1.431000000
H     4.272000000     1.776000000    -1.594000000
O     2.157000000    -4.253000000    -3.689000000
H     2.893000000    -3.642000000    -3.664000000
H     1.740000000    -4.161000000    -2.832000000
O    -3.901000000     0.629000000    -2.730000000
H    -4.183000000     1.070000000    -1.928000000
H    -4.092000000    -0.296000000    -2.574000000
O    -1.691000000     7.459000000    -1.046000000
H    -1.819000000     8.179000000    -1.664000000
H    -2.288000000     7.656000000    -0.324000000
O     5.944000000     3.094000000     0.983000000
H     5.913000000     2.523000000     0.215000000
H     5.032000000     3.166000000     1.264000000
O     5.219000000     0.102000000     2.067000000
H     4.916000000     0.756000000     1.437000000
H     6.154000000     0.010000000     1.885000000
O    -0.174000000     5.051000000     4.897000000
H    -0.105000000     4.974000000     5.848000000
H    -1.102000000     5.225000000     4.737000000
O     2.228000000    -5.486000000     1.595000000
H     2.878000000    -4.843000000     1.313000000
H     2.073000000    -5.281000000     2.517000000
O    -3.809000000     0.249000000    -5.676000000
H    -3.968000000     0.613000000    -4.805000000
H    -4.097000000     0.935000000    -6.278000000
O     7.046000000    -0.811000000     0.195000000
H     6.534000000    -0.866000000    -0.611000000
H     7.129000000    -1.719000000     0.488000000
O    -5.823000000     1.307000000     2.424000000
H    -6.130000000     2.176000000     2.682000000
H    -5.437000000     0.943000000     3.221000000
O     3.497000000    -7.462000000    -2.215000000
H     4.082000000    -6.811000000    -1.826000000
H     2.949000000    -7.756000000    -1.488000000
O    -3.776000000     4.572000000    -3.602000000
H    -3.896000000     5.229000000    -4.288000000
H    -4.654000000     4.436000000    -3.245000000
O     3.634000000     3.330000000     2.341000000
H     2.769000000     3.667000000     2.107000000
H     3.936000000     3.911000000     3.040000000
O    -5.115000000     2.185000000    -0.336000000
H    -5.049000000     1.678000000     0.474000000
H    -5.123000000     3.097000000    -0.048000000
O    -1.467000000    -0.242000000    -4.321000000
H    -1.893000000    -0.120000000    -5.169000000
H    -2.138000000    -0.003000000    -3.680000000
O    -5.242000000     4.830000000     0.624000000
H    -5.114000000     5.420000000    -0.119000000
H    -4.757000000     5.240000000     1.341000000
O    -0.775000000    -0.465000000     3.806000000
H     0.000000000    -0.268000000     4.332000000
H    -0.696000000     0.103000000     3.040000000
O    -0.107000000    -2.501000000    -4.783000000
H     0.053000000    -3.011000000    -3.989000000
H    -0.512000000    -1.692000000    -4.470000000
O     1.482000000     4.555000000     1.293000000
H     1.553000000     5.384000000     1.766000000
H     0.823000000     4.719000000     0.618000000
O    -0.484000000     5.066000000    -1.065000000
H    -1.094000000     4.628000000    -1.658000000
H    -0.738000000     5.989000000    -1.098000000
O    -3.623000000    -5.523000000    -0.934000000
H    -3.338000000    -6.437000000    -0.920000000
H    -4.474000000    -5.530000000    -0.498000000
O     0.758000000     1.017000000    -2.720000000
H     0.014000000     1.057000000    -3.320000000
H     0.470000000     0.434000000    -2.019000000
O    -1.931000000    -4.348000000    -2.596000000
H    -2.589000000    -4.632000000    -1.961000000
H    -1.093000000    -4.551000000    -2.179000000
O    -3.736000000     0.190000000     4.743000000
H    -3.689000000     1.026000000     5.207000000
H    -2.827000000    -0.012000000     4.521000000
O    -0.192000000    -4.447000000    -6.970000000
H    -0.164000000    -3.634000000    -6.465000000
H    -0.848000000    -4.983000000    -6.524000000
O     5.158000000    -3.077000000    -5.604000000
H     4.659000000    -2.538000000    -4.990000000
H     4.718000000    -3.927000000    -5.588000000
O     0.875000000    -5.901000000    -0.724000000
H     1.155000000    -5.559000000     0.125000000
H     0.835000000    -5.132000000    -1.292000000
