144
-2793.68852
O    -0.500000000    -3.807000000     3.788000000
H    -0.600000000    -3.468000000     4.677000000
H     0.214000000    -3.291000000     3.413000000
O    -2.402000000    -0.188000000     4.185000000
H    -2.714000000    -0.822000000     4.830000000
H    -3.194000000     0.097000000     3.728000000
O     4.314000000     0.866000000    -1.669000000
H     4.201000000     0.822000000    -2.619000000
H     3.639000000     0.283000000    -1.321000000
O    -2.129000000     4.914000000     4.045000000
H    -1.341000000     5.450000000     3.952000000
H    -1.893000000     4.251000000     4.694000000
O     3.135000000    -3.068000000    -3.603000000
H     3.010000000    -3.164000000    -4.547000000
H     2.305000000    -2.713000000    -3.286000000
O     6.195000000    -2.344000000    -0.177000000
H     5.939000000    -2.419000000    -1.097000000
H     5.499000000    -1.824000000     0.224000000
O     3.861000000    -1.070000000     0.516000000
H     2.946000000    -1.351000000     0.531000000
H     3.883000000    -0.293000000     1.074000000
O    -0.789000000     2.021000000     5.403000000
H    -1.176000000     1.315000000     4.885000000
H    -1.283000000     2.014000000     6.223000000
O     2.950000000    -3.738000000     1.255000000
H     3.703000000    -3.161000000     1.132000000
H     2.254000000    -3.160000000     1.568000000
O    -4.367000000    -0.790000000    -6.031000000
H    -3.878000000    -1.280000000    -5.369000000
H    -5.252000000    -1.152000000    -5.992000000
O     0.590000000     6.126000000    -0.423000000
H     0.016000000     5.463000000    -0.808000000
H     0.003000000     6.845000000    -0.190000000
O     4.971000000     3.116000000     4.720000000
H     5.515000000     2.410000000     4.372000000
H     4.210000000     2.671000000     5.093000000
O     2.580000000    -0.790000000     4.592000000
H     2.149000000    -1.174000000     5.355000000
H     2.590000000     0.151000000     4.771000000
O     4.861000000     5.716000000     3.200000000
H     4.252000000     5.321000000     2.577000000
H     4.870000000     5.112000000     3.943000000
O     0.097000000    -4.741000000    -4.675000000
H     0.279000000    -3.944000000    -4.177000000
H    -0.817000000    -4.944000000    -4.476000000
O    -6.201000000    -3.002000000    -1.913000000
H    -7.079000000    -3.252000000    -2.198000000
H    -5.637000000    -3.219000000    -2.655000000
O    -4.123000000     3.147000000     5.280000000
H    -4.201000000     4.024000000     4.904000000
H    -4.138000000     2.561000000     4.523000000
O     1.591000000    -0.571000000    -4.751000000
H     1.359000000    -1.199000000    -4.067000000
H     0.821000000    -0.539000000    -5.319000000
O     6.311000000     4.231000000    -1.903000000
H     6.369000000     5.156000000    -1.662000000
H     5.395000000     4.000000000    -1.746000000
O     2.595000000     1.826000000     5.476000000
H     2.362000000     1.654000000     6.389000000
H     1.949000000     2.467000000     5.180000000
O    -0.720000000     3.927000000    -1.388000000
H    -0.560000000     3.073000000    -0.986000000
H    -1.463000000     3.782000000    -1.973000000
O     2.713000000     5.214000000     1.113000000
H     2.896000000     4.721000000     0.313000000
H     1.758000000     5.266000000     1.150000000
O    -2.832000000    -3.616000000     2.441000000
H    -2.736000000    -3.687000000     1.491000000
H    -1.943000000    -3.724000000     2.780000000
O    -3.896000000     3.229000000     1.023000000
H    -3.372000000     4.021000000     0.905000000
H    -4.778000000     3.482000000     0.750000000
O    -2.369000000    -7.739000000    -3.380000000
H    -2.132000000    -6.815000000    -3.296000000
H    -2.198000000    -7.947000000    -4.298000000
O     3.765000000     1.555000000     1.716000000
H     3.660000000     2.373000000     1.229000000
H     3.622000000     1.801000000     2.630000000
O    -2.206000000    -5.112000000    -3.134000000
H    -3.144000000    -4.954000000    -3.244000000
H    -1.870000000    -4.302000000    -2.752000000
O     1.099000000    -6.997000000    -5.962000000
H     0.682000000    -6.328000000    -5.420000000
H     1.959000000    -7.127000000    -5.562000000
O    -5.205000000    -4.309000000     0.268000000
H    -4.313000000    -4.491000000    -0.028000000
H    -5.556000000    -3.704000000    -0.385000000
O     1.191000000    -1.861000000     2.325000000
H     0.438000000    -1.349000000     2.028000000
H     1.464000000    -1.435000000     3.138000000
O    -2.794000000     5.522000000     0.039000000
H    -2.497000000     6.339000000     0.440000000
H    -2.047000000     5.225000000    -0.480000000
O     4.194000000     0.461000000    -4.176000000
H     4.599000000     0.569000000    -5.036000000
H     3.382000000    -0.015000000    -4.352000000
O     1.507000000     4.388000000    -2.823000000
H     1.458000000     4.680000000    -3.733000000
H     0.598000000     4.216000000    -2.576000000
O     2.426000000    -3.636000000    -6.187000000
H     2.015000000    -4.477000000    -5.985000000
H     2.228000000    -3.489000000    -7.112000000
O     0.691000000    -0.303000000     6.667000000
H     0.042000000     0.313000000     6.327000000
H     1.174000000     0.198000000     7.326000000
O     1.093000000    -5.577000000    -1.455000000
H     1.397000000    -4.719000000    -1.749000000
H     0.364000000    -5.786000000    -2.040000000
O     6.876000000     0.798000000    -0.201000000
H     6.008000000     0.600000000    -0.553000000
H     6.959000000     0.229000000     0.564000000
O    -0.895000000    -0.459000000    -5.554000000
H    -1.551000000    -0.907000000    -5.020000000
H    -1.238000000     0.429000000    -5.659000000
O    -4.825000000     1.740000000     3.200000000
H    -4.390000000     2.442000000     2.716000000
H    -5.338000000     1.276000000     2.539000000
O    -2.575000000    -4.116000000    -0.211000000
H    -2.314000000    -5.025000000    -0.067000000
H    -2.012000000    -3.815000000    -0.924000000
O     1.086000000     4.071000000     4.645000000
H     0.606000000     4.542000000     5.326000000
H     0.436000000     3.487000000     4.254000000
O     3.488000000    -5.977000000    -3.663000000
H     4.129000000    -6.209000000    -2.991000000
H     3.278000000    -5.060000000    -3.487000000
O    -3.679000000     0.487000000    -1.756000000
H    -3.160000000     0.078000000    -1.064000000
H    -4.587000000     0.348000000    -1.489000000
O    -3.338000000     3.381000000    -2.506000000
H    -4.282000000     3.523000000    -2.584000000
H    -3.259000000     2.515000000    -2.107000000
O    -5.539000000    -3.411000000     2.954000000
H    -4.662000000    -3.028000000     2.981000000
H    -5.607000000    -3.792000000     2.078000000
O    -2.680000000    -1.498000000    -3.892000000
H    -3.144000000    -0.774000000    -3.472000000
H    -2.136000000    -1.869000000    -3.198000000
O     3.343000000     3.436000000    -1.086000000
H     2.796000000     3.692000000    -1.829000000
H     3.659000000     2.561000000    -1.313000000
O     5.545000000    -2.795000000    -2.693000000
H     5.801000000    -2.413000000    -3.533000000
H     4.589000000    -2.809000000    -2.719000000
