144
-2831.73194
O     2.680000000     1.873000000     2.628000000
H     2.504000000     2.427000000     3.389000000
H     2.054000000     1.152000000     2.707000000
O    -5.944000000    -0.973000000     4.083000000
H    -6.181000000    -1.240000000     3.195000000
H    -5.038000000    -0.672000000     4.009000000
O    -3.204000000     5.313000000     1.489000000
H    -2.823000000     5.763000000     2.243000000
H    -2.701000000     4.502000000     1.416000000
O     5.350000000    -3.436000000    -1.774000000
H     4.820000000    -2.639000000    -1.795000000
H     4.735000000    -4.138000000    -1.983000000
O    -6.534000000    -1.801000000     1.070000000
H    -6.218000000    -1.241000000     0.361000000
H    -7.075000000    -2.459000000     0.633000000
O    -0.588000000    -7.391000000    -2.474000000
H     0.276000000    -7.552000000    -2.094000000
H    -0.766000000    -8.169000000    -3.002000000
O     5.805000000    -0.296000000    -4.084000000
H     5.398000000     0.429000000    -4.559000000
H     5.227000000    -0.445000000    -3.336000000
O     4.388000000    -0.540000000    -1.713000000
H     4.245000000     0.312000000    -1.302000000
H     3.676000000    -1.088000000    -1.383000000
O     1.617000000     3.411000000     4.693000000
H     2.121000000     4.085000000     5.149000000
H     1.078000000     3.012000000     5.377000000
O     5.068000000     0.040000000     2.318000000
H     4.223000000     0.489000000     2.331000000
H     5.414000000     0.207000000     1.441000000
O     2.739000000    -3.600000000    -4.294000000
H     2.626000000    -2.868000000    -3.689000000
H     2.268000000    -4.325000000    -3.884000000
O    -4.921000000     3.232000000    -0.759000000
H    -4.301000000     3.842000000    -1.160000000
H    -4.499000000     2.376000000    -0.838000000
O     5.194000000     3.323000000    -3.235000000
H     4.770000000     3.561000000    -2.410000000
H     5.956000000     2.806000000    -2.972000000
O    -3.111000000     3.308000000     5.026000000
H    -3.724000000     3.886000000     4.571000000
H    -2.247000000     3.661000000     4.814000000
O     1.862000000     0.425000000    -4.371000000
H     2.807000000     0.562000000    -4.439000000
H     1.571000000     0.316000000    -5.276000000
O    -3.337000000    -4.136000000     0.572000000
H    -2.402000000    -4.100000000     0.369000000
H    -3.552000000    -5.068000000     0.543000000
O     3.233000000    -5.603000000    -1.509000000
H     2.795000000    -4.927000000    -0.991000000
H     2.801000000    -6.418000000    -1.252000000
O    -3.409000000     0.948000000    -1.170000000
H    -2.522000000     0.744000000    -1.463000000
H    -3.467000000     0.563000000    -0.296000000
O     1.572000000     3.088000000    -3.428000000
H     1.681000000     2.142000000    -3.528000000
H     2.400000000     3.458000000    -3.734000000
O     0.087000000    -4.105000000     4.919000000
H    -0.019000000    -3.360000000     4.328000000
H     0.979000000    -4.019000000     5.257000000
O     0.675000000    -4.912000000    -2.925000000
H     0.145000000    -5.626000000    -2.571000000
H     0.727000000    -4.275000000    -2.213000000
O    -0.759000000     6.699000000    -0.110000000
H    -0.595000000     6.104000000    -0.842000000
H    -1.700000000     6.629000000     0.049000000
O    -3.926000000    -2.090000000     2.116000000
H    -4.807000000    -1.926000000     1.779000000
H    -3.550000000    -2.724000000     1.506000000
O     3.898000000     1.601000000     0.067000000
H     3.330000000     1.703000000     0.831000000
H     4.126000000     2.497000000    -0.183000000
O    -5.164000000     4.766000000     3.371000000
H    -4.563000000     4.800000000     2.627000000
H    -5.650000000     5.590000000     3.325000000
O     1.144000000     5.426000000     2.765000000
H     1.306000000     6.114000000     3.410000000
H     1.418000000     4.619000000     3.201000000
O     2.036000000    -4.655000000     1.964000000
H     2.775000000    -4.048000000     2.005000000
H     1.470000000    -4.299000000     1.279000000
O    -5.796000000    -0.423000000    -1.179000000
H    -6.453000000    -0.407000000    -1.876000000
H    -5.137000000     0.213000000    -1.457000000
O    -1.270000000     0.458000000     4.358000000
H    -2.054000000     0.930000000     4.076000000
H    -1.000000000     0.903000000     5.162000000
O    -1.258000000    -0.441000000    -3.030000000
H    -0.864000000    -1.138000000    -3.555000000
H    -0.533000000    -0.093000000    -2.511000000
O    -3.174000000    -7.087000000    -1.575000000
H    -2.322000000    -6.679000000    -1.417000000
H    -3.257000000    -7.104000000    -2.528000000
O     1.457000000    -7.497000000    -0.701000000
H     1.301000000    -7.383000000     0.237000000
H     2.036000000    -8.257000000    -0.757000000
O    -7.128000000     3.609000000     0.903000000
H    -6.334000000     3.350000000     0.435000000
H    -6.903000000     3.511000000     1.828000000
O     0.666000000    -7.028000000     1.928000000
H     0.140000000    -7.163000000     2.716000000
H     1.214000000    -6.270000000     2.133000000
O    -1.515000000    -1.959000000     3.325000000
H    -2.300000000    -1.928000000     2.778000000
H    -1.513000000    -1.122000000     3.789000000
O    -2.659000000     5.102000000    -1.743000000
H    -1.735000000     4.967000000    -1.956000000
H    -3.111000000     5.028000000    -2.583000000
O     1.227000000    -0.366000000     2.767000000
H     0.898000000    -0.478000000     1.875000000
H     0.533000000    -0.718000000     3.324000000
O     0.802000000    -1.579000000    -6.470000000
H     0.892000000    -2.399000000    -6.956000000
H     0.417000000    -1.838000000    -5.633000000
O     4.045000000     4.315000000    -0.781000000
H     4.516000000     4.862000000    -0.153000000
H     3.140000000     4.622000000    -0.734000000
O     4.001000000    -6.969000000     2.078000000
H     4.956000000    -7.033000000     2.072000000
H     3.820000000    -6.067000000     1.817000000
O     0.060000000     5.339000000    -2.420000000
H     0.281000000     4.408000000    -2.445000000
H     0.629000000     5.738000000    -3.078000000
O    -4.549000000     7.028000000     0.108000000
H    -4.723000000     6.627000000    -0.744000000
H    -4.061000000     6.361000000     0.591000000
O    -0.696000000    -2.864000000    -3.987000000
H    -1.567000000    -3.253000000    -4.063000000
H    -0.126000000    -3.596000000    -3.751000000
O    -4.260000000    -2.898000000    -1.665000000
H    -4.862000000    -2.165000000    -1.791000000
H    -4.421000000    -3.189000000    -0.767000000
O     2.565000000    -6.546000000    -4.193000000
H     3.198000000    -6.246000000    -3.541000000
H     1.747000000    -6.114000000    -3.949000000
O    -1.538000000     4.954000000     3.701000000
H    -0.658000000     5.067000000     3.342000000
H    -1.498000000     5.361000000     4.566000000
O     1.846000000     6.317000000     0.164000000
H     2.021000000     5.882000000     0.999000000
H     0.895000000     6.424000000     0.145000000
O    -1.060000000    -5.268000000    -0.386000000
H    -0.731000000    -6.070000000     0.021000000
H    -0.294000000    -4.698000000    -0.443000000
