144
-2826.42708
O     0.055000000    -0.977000000     2.638000000
H     0.905000000    -0.990000000     3.078000000
H     0.229000000    -0.558000000     1.795000000
O    -4.433000000     3.607000000     1.969000000
H    -4.972000000     4.113000000     2.577000000
H    -4.748000000     3.861000000     1.102000000
O     3.050000000    -7.754000000    -1.065000000
H     3.226000000    -8.483000000    -0.471000000
H     2.310000000    -7.295000000    -0.668000000
O     2.355000000    -1.629000000    -3.277000000
H     2.550000000    -1.260000000    -4.138000000
H     1.400000000    -1.598000000    -3.214000000
O     5.643000000    -5.640000000    -0.428000000
H     4.809000000    -5.252000000    -0.692000000
H     6.198000000    -5.565000000    -1.204000000
O     4.898000000    -2.040000000    -2.015000000
H     5.254000000    -2.509000000    -2.770000000
H     4.152000000    -1.552000000    -2.366000000
O     1.208000000     2.396000000     4.258000000
H     1.283000000     3.339000000     4.113000000
H     0.283000000     2.203000000     4.110000000
O     3.584000000    -3.485000000     0.220000000
H     2.889000000    -3.292000000    -0.410000000
H     4.378000000    -3.136000000    -0.185000000
O     4.705000000     3.426000000     1.595000000
H     4.387000000     2.602000000     1.966000000
H     3.916000000     3.955000000     1.475000000
O     2.726000000     5.482000000     1.221000000
H     2.128000000     5.618000000     1.956000000
H     3.251000000     6.282000000     1.190000000
O     2.529000000    -4.502000000    -2.941000000
H     2.042000000    -4.464000000    -2.118000000
H     2.759000000    -3.592000000    -3.126000000
O    -3.293000000    -2.573000000     2.700000000
H    -2.458000000    -3.039000000     2.750000000
H    -3.054000000    -1.648000000     2.765000000
O    -1.859000000     4.282000000    -3.645000000
H    -2.303000000     3.434000000    -3.661000000
H    -1.786000000     4.496000000    -2.715000000
O     2.907000000    -5.258000000     2.245000000
H     3.629000000    -4.831000000     2.707000000
H     3.104000000    -5.123000000     1.318000000
O    -2.304000000     7.460000000     3.834000000
H    -2.916000000     7.924000000     3.262000000
H    -2.174000000     6.612000000     3.409000000
O     1.572000000     2.636000000    -3.698000000
H     1.267000000     1.747000000    -3.518000000
H     1.847000000     2.972000000    -2.845000000
O    -5.029000000     1.734000000     4.352000000
H    -4.997000000     2.636000000     4.671000000
H    -4.455000000     1.730000000     3.586000000
O    -1.591000000     5.261000000    -1.157000000
H    -1.547000000     6.215000000    -1.234000000
H    -0.965000000     5.048000000    -0.465000000
O     3.743000000     2.015000000    -1.178000000
H     3.562000000     2.936000000    -1.369000000
H     4.632000000     1.874000000    -1.501000000
O    -0.584000000    -5.497000000    -2.762000000
H     0.230000000    -5.911000000    -2.474000000
H    -0.803000000    -4.886000000    -2.058000000
O    -2.714000000     1.248000000    -3.579000000
H    -3.518000000     0.980000000    -3.133000000
H    -2.787000000     0.865000000    -4.454000000
O    -2.378000000     0.586000000     2.756000000
H    -1.542000000     0.134000000     2.642000000
H    -2.192000000     1.277000000     3.392000000
O     4.333000000    -0.018000000     0.789000000
H     4.122000000     0.624000000     0.112000000
H     3.736000000     0.187000000     1.508000000
O    -2.950000000    -7.288000000     1.984000000
H    -3.447000000    -8.105000000     2.032000000
H    -2.586000000    -7.281000000     1.099000000
O     6.894000000    -0.500000000     1.910000000
H     6.049000000    -0.065000000     1.797000000
H     7.056000000    -0.930000000     1.071000000
O     1.026000000     5.122000000     3.894000000
H     1.471000000     5.917000000     4.187000000
H     0.285000000     5.029000000     4.492000000
O    -1.524000000     2.502000000     4.584000000
H    -1.478000000     3.374000000     4.977000000
H    -1.450000000     1.901000000     5.325000000
O     0.745000000    -6.367000000    -0.059000000
H     0.539000000    -5.436000000    -0.135000000
H     0.450000000    -6.607000000     0.820000000
O    -5.996000000     1.127000000    -3.047000000
H    -6.099000000     1.321000000    -2.116000000
H    -6.387000000     0.260000000    -3.155000000
O     2.939000000    -2.098000000     2.439000000
H     3.064000000    -2.687000000     1.695000000
H     3.800000000    -1.706000000     2.581000000
O     7.203000000    -1.232000000    -0.780000000
H     7.754000000    -1.966000000    -1.052000000
H     6.369000000    -1.380000000    -1.226000000
O     2.058000000    -7.019000000    -4.048000000
H     2.062000000    -6.152000000    -3.643000000
H     2.740000000    -7.503000000    -3.582000000
O    -3.630000000    -3.217000000    -0.175000000
H    -2.688000000    -3.276000000    -0.331000000
H    -3.713000000    -3.178000000     0.778000000
O     3.290000000     1.167000000     3.362000000
H     2.400000000     1.452000000     3.568000000
H     3.757000000     1.215000000     4.197000000
O    -5.095000000    -0.914000000    -1.060000000
H    -4.658000000    -1.765000000    -1.071000000
H    -4.695000000    -0.449000000    -0.325000000
O    -0.239000000    -1.537000000    -4.839000000
H    -1.042000000    -1.995000000    -4.588000000
H    -0.232000000    -0.749000000    -4.296000000
O    -1.802000000     5.008000000     2.049000000
H    -2.683000000     4.642000000     1.977000000
H    -1.340000000     4.407000000     2.634000000
O    -4.872000000     3.944000000    -0.770000000
H    -4.856000000     3.856000000    -1.723000000
H    -4.381000000     4.747000000    -0.596000000
O    -0.835000000    -3.651000000     2.484000000
H    -0.277000000    -2.875000000     2.536000000
H    -0.711000000    -3.975000000     1.591000000
O     2.522000000     4.753000000    -1.828000000
H     2.788000000     4.885000000    -0.918000000
H     1.902000000     5.461000000    -2.001000000
O     1.039000000     6.893000000    -2.104000000
H     0.426000000     7.146000000    -1.413000000
H     0.590000000     7.123000000    -2.917000000
O     4.763000000    -5.389000000    -4.522000000
H     3.960000000    -5.092000000    -4.094000000
H     4.460000000    -5.951000000    -5.236000000
O    -4.320000000    -4.450000000    -2.561000000
H    -3.919000000    -4.088000000    -1.771000000
H    -4.821000000    -5.205000000    -2.251000000
O    -0.079000000     0.567000000    -2.997000000
H    -0.744000000     1.074000000    -3.462000000
H    -0.507000000     0.300000000    -2.183000000
O    -2.309000000    -3.267000000    -4.183000000
H    -2.993000000    -3.521000000    -3.564000000
H    -1.732000000    -4.030000000    -4.229000000
O    -4.413000000     1.142000000     1.024000000
H    -4.246000000     2.082000000     1.085000000
H    -3.714000000     0.740000000     1.540000000
O    -6.655000000     1.835000000    -0.184000000
H    -6.020000000     1.451000000     0.421000000
H    -6.322000000     2.717000000    -0.352000000
O    -2.395000000    -6.600000000    -0.667000000
H    -2.457000000    -5.670000000    -0.447000000
H    -2.449000000    -6.624000000    -1.623000000
