144
-2791.62702
O     6.308000000     4.994000000     1.219000000
H     5.355000000     4.922000000     1.166000000
H     6.460000000     5.681000000     1.868000000
O    -7.710000000    -4.209000000    -1.662000000
H    -7.960000000    -4.998000000    -2.143000000
H    -6.896000000    -3.923000000    -2.077000000
O    -4.408000000     2.172000000    -1.453000000
H    -4.835000000     1.321000000    -1.352000000
H    -4.894000000     2.755000000    -0.870000000
O    -6.314000000    -2.805000000     1.777000000
H    -6.605000000    -1.896000000     1.704000000
H    -5.870000000    -2.981000000     0.948000000
O     2.836000000     0.187000000    -5.402000000
H     2.915000000     1.133000000    -5.282000000
H     3.579000000    -0.047000000    -5.959000000
O    -6.720000000     0.046000000     2.032000000
H    -7.117000000     0.872000000     2.307000000
H    -6.356000000    -0.325000000     2.836000000
O    -4.878000000    -7.436000000     0.545000000
H    -4.181000000    -6.858000000     0.236000000
H    -4.533000000    -8.319000000     0.414000000
O    -1.117000000    -3.430000000    -2.940000000
H    -1.461000000    -3.507000000    -2.050000000
H    -0.393000000    -2.809000000    -2.864000000
O    -3.036000000    -5.472000000    -1.306000000
H    -2.563000000    -4.863000000    -0.740000000
H    -2.449000000    -5.615000000    -2.048000000
O     1.343000000     6.223000000     2.780000000
H     1.957000000     5.792000000     2.186000000
H     1.725000000     6.100000000     3.649000000
O    -3.243000000     6.534000000     0.162000000
H    -2.619000000     6.196000000     0.804000000
H    -3.486000000     7.398000000     0.495000000
O     4.594000000    -2.356000000    -3.054000000
H     3.812000000    -2.006000000    -3.482000000
H     4.320000000    -3.209000000    -2.715000000
O     4.422000000     3.907000000    -1.019000000
H     5.081000000     3.319000000    -0.649000000
H     4.810000000     4.215000000    -1.838000000
O     0.533000000     0.556000000    -3.792000000
H     0.740000000     0.158000000    -2.946000000
H     1.209000000     0.226000000    -4.384000000
O    -1.480000000    -7.012000000     1.564000000
H    -1.841000000    -6.395000000     2.201000000
H    -0.862000000    -6.493000000     1.051000000
O     4.426000000     3.022000000     3.471000000
H     4.641000000     3.243000000     4.377000000
H     5.207000000     2.578000000     3.141000000
O     2.971000000     2.986000000    -5.436000000
H     3.391000000     3.606000000    -6.032000000
H     2.727000000     3.513000000    -4.675000000
O    -4.809000000     1.104000000    -4.024000000
H    -4.681000000     1.707000000    -3.292000000
H    -5.239000000     0.342000000    -3.635000000
O     2.034000000     5.286000000    -3.982000000
H     2.661000000     5.635000000    -4.614000000
H     2.212000000     5.770000000    -3.175000000
O    -0.041000000    -5.305000000     0.055000000
H     0.832000000    -5.164000000    -0.311000000
H    -0.481000000    -4.460000000    -0.040000000
O    -2.979000000     1.286000000     4.248000000
H    -2.536000000     0.651000000     4.810000000
H    -2.966000000     0.888000000     3.378000000
O    -1.431000000     5.378000000     2.060000000
H    -1.959000000     5.174000000     2.832000000
H    -0.605000000     5.707000000     2.415000000
O    -5.333000000    -3.554000000    -3.573000000
H    -5.172000000    -4.388000000    -4.013000000
H    -5.056000000    -3.702000000    -2.669000000
O    -2.382000000     4.042000000    -1.106000000
H    -3.035000000     3.400000000    -1.384000000
H    -2.827000000     4.563000000    -0.438000000
O     0.747000000     3.465000000     4.246000000
H     1.227000000     3.353000000     5.067000000
H     1.424000000     3.651000000     3.596000000
O    -2.583000000    -3.208000000    -5.439000000
H    -2.217000000    -2.359000000    -5.686000000
H    -2.033000000    -3.503000000    -4.713000000
O     1.428000000    -2.533000000    -2.988000000
H     1.837000000    -3.305000000    -2.596000000
H     1.660000000    -2.584000000    -3.915000000
O    -5.519000000    -0.114000000    -0.268000000
H    -5.964000000    -0.078000000     0.579000000
H    -4.644000000    -0.446000000    -0.065000000
O    -0.060000000     0.943000000     3.336000000
H    -0.599000000     0.651000000     2.601000000
H    -0.074000000     1.898000000     3.279000000
O    -4.929000000     4.256000000     0.238000000
H    -4.947000000     5.206000000     0.121000000
H    -4.590000000     4.130000000     1.124000000
O     3.228000000    -4.097000000     1.284000000
H     3.960000000    -4.684000000     1.470000000
H     3.625000000    -3.228000000     1.227000000
O     6.575000000     2.013000000     2.338000000
H     7.500000000     1.806000000     2.467000000
H     6.346000000     1.584000000     1.514000000
O     6.134000000    -2.115000000    -0.040000000
H     5.731000000    -1.489000000    -0.642000000
H     6.026000000    -1.720000000     0.825000000
O     3.534000000     4.744000000     1.582000000
H     3.430000000     4.283000000     0.750000000
H     3.801000000     4.064000000     2.201000000
O     0.727000000    -3.520000000     2.586000000
H    -0.207000000    -3.725000000     2.610000000
H     1.033000000    -3.894000000     1.759000000
O     2.004000000    -0.650000000     3.444000000
H     1.661000000    -1.468000000     3.085000000
H     1.324000000    -0.003000000     3.257000000
O    -0.909000000     2.574000000    -3.139000000
H    -0.277000000     1.875000000    -3.310000000
H    -0.801000000     2.772000000    -2.209000000
O     4.807000000    -0.879000000     2.068000000
H     4.128000000    -0.447000000     2.587000000
H     5.094000000    -1.612000000     2.613000000
O    -6.575000000    -0.844000000    -2.776000000
H    -6.250000000    -0.656000000    -1.895000000
H    -6.456000000    -1.788000000    -2.879000000
O    -5.015000000    -3.448000000    -0.842000000
H    -4.516000000    -4.251000000    -0.695000000
H    -4.418000000    -2.744000000    -0.588000000
O     2.440000000     5.796000000    -1.029000000
H     2.947000000     4.984000000    -1.020000000
H     2.156000000     5.911000000    -0.122000000
O    -1.650000000    -3.597000000     5.352000000
H    -2.335000000    -3.657000000     6.018000000
H    -2.086000000    -3.208000000     4.594000000
O     7.157000000     1.351000000    -0.471000000
H     7.912000000     1.936000000    -0.409000000
H     7.457000000     0.631000000    -1.026000000
O     2.599000000    -4.546000000    -1.408000000
H     2.912000000    -4.380000000    -0.519000000
H     2.395000000    -5.481000000    -1.420000000
O    -1.955000000    -4.253000000     2.528000000
H    -2.833000000    -4.309000000     2.905000000
H    -2.095000000    -3.916000000     1.643000000
O    -3.564000000    -0.516000000     2.261000000
H    -3.479000000    -1.014000000     1.448000000
H    -4.373000000    -0.839000000     2.656000000
O    -2.316000000     4.530000000    -4.449000000
H    -2.335000000     3.963000000    -5.220000000
H    -1.882000000     4.005000000    -3.776000000
O    -4.478000000    -4.149000000     3.466000000
H    -5.151000000    -3.574000000     3.102000000
H    -4.775000000    -4.330000000     4.358000000
