144
-2803.86000
O    -6.688000000    -3.425000000    -0.781000000
H    -6.766000000    -4.379000000    -0.758000000
H    -5.745000000    -3.262000000    -0.754000000
O    -4.808000000     3.726000000     3.362000000
H    -4.686000000     2.786000000     3.229000000
H    -4.077000000     4.131000000     2.894000000
O     0.793000000     0.939000000    -2.941000000
H     0.234000000     0.746000000    -2.189000000
H     1.653000000     1.117000000    -2.560000000
O    -2.832000000    -7.835000000    -0.341000000
H    -3.145000000    -7.329000000    -1.091000000
H    -1.943000000    -7.513000000    -0.190000000
O     1.143000000    -4.387000000    -3.636000000
H     0.791000000    -3.532000000    -3.884000000
H     0.578000000    -4.680000000    -2.920000000
O     0.079000000    -7.945000000     0.172000000
H     0.869000000    -7.825000000    -0.355000000
H     0.404000000    -8.138000000     1.051000000
O    -0.565000000    -6.133000000    -1.915000000
H    -0.409000000    -6.888000000    -1.348000000
H    -0.416000000    -5.374000000    -1.352000000
O     4.362000000    -3.295000000     3.687000000
H     4.152000000    -2.625000000     4.337000000
H     4.632000000    -4.054000000     4.204000000
O     4.286000000     4.943000000    -1.568000000
H     4.024000000     5.602000000    -2.211000000
H     5.232000000     4.856000000    -1.685000000
O    -2.289000000    -3.072000000    -6.613000000
H    -1.662000000    -3.632000000    -7.070000000
H    -2.377000000    -3.468000000    -5.746000000
O     3.876000000    -1.021000000    -1.487000000
H     3.312000000    -0.253000000    -1.396000000
H     4.028000000    -1.314000000    -0.588000000
O    -0.514000000    -6.522000000    -5.349000000
H    -0.240000000    -6.037000000    -4.571000000
H    -1.254000000    -6.023000000    -5.694000000
O     4.060000000     5.870000000     1.428000000
H     4.629000000     6.634000000     1.518000000
H     4.368000000     5.433000000     0.634000000
O     0.783000000     0.070000000    -5.511000000
H     1.089000000     0.229000000    -4.618000000
H    -0.154000000     0.265000000    -5.482000000
O     1.675000000     2.441000000     4.876000000
H     2.155000000     3.163000000     4.471000000
H     1.623000000     2.678000000     5.802000000
O    -3.685000000    -4.913000000     1.790000000
H    -2.939000000    -4.447000000     2.168000000
H    -3.876000000    -4.441000000     0.980000000
O     0.947000000     4.477000000    -1.937000000
H     1.659000000     4.072000000    -1.442000000
H     0.602000000     5.152000000    -1.352000000
O    -5.187000000     1.649000000    -0.662000000
H    -5.289000000     0.970000000     0.005000000
H    -4.719000000     1.215000000    -1.375000000
O    -0.503000000     6.005000000    -0.090000000
H    -0.756000000     5.219000000     0.394000000
H    -1.038000000     6.702000000     0.288000000
O     2.434000000    -7.535000000    -1.254000000
H     3.218000000    -7.880000000    -0.827000000
H     2.766000000    -7.041000000    -2.003000000
O     2.836000000    -4.587000000     0.038000000
H     2.762000000    -5.389000000    -0.478000000
H     2.107000000    -4.042000000    -0.258000000
O    -2.497000000    -4.110000000    -4.024000000
H    -3.243000000    -4.620000000    -3.710000000
H    -1.983000000    -3.928000000    -3.237000000
O    -4.547000000     2.595000000    -4.578000000
H    -4.411000000     1.943000000    -3.891000000
H    -4.330000000     3.430000000    -4.163000000
O     4.667000000     0.543000000     1.999000000
H     4.307000000    -0.115000000     1.404000000
H     5.615000000     0.446000000     1.918000000
O    -2.025000000     4.086000000     2.861000000
H    -1.865000000     3.145000000     2.932000000
H    -1.279000000     4.490000000     3.305000000
O    -1.563000000     1.934000000    -4.720000000
H    -0.757000000     2.089000000    -4.227000000
H    -2.188000000     1.624000000    -4.065000000
O     3.412000000    -5.841000000    -3.102000000
H     2.602000000    -5.408000000    -3.368000000
H     3.929000000    -5.151000000    -2.686000000
O     3.363000000     2.310000000    -2.265000000
H     3.613000000     3.198000000    -2.010000000
H     3.616000000     2.246000000    -3.186000000
O    -4.146000000     0.481000000    -2.953000000
H    -4.742000000    -0.178000000    -3.308000000
H    -3.275000000     0.097000000    -3.059000000
O    -1.786000000     7.164000000     2.229000000
H    -1.725000000     7.436000000     3.145000000
H    -1.742000000     6.208000000     2.261000000
O    -1.396000000     1.310000000     3.463000000
H    -0.742000000     0.701000000     3.119000000
H    -1.167000000     1.411000000     4.387000000
O     4.361000000    -2.248000000     0.799000000
H     3.882000000    -3.076000000     0.824000000
H     4.899000000    -2.258000000     1.591000000
O     3.356000000     4.613000000     3.936000000
H     3.501000000     5.033000000     3.089000000
H     4.008000000     3.913000000     3.972000000
O    -1.355000000     2.602000000     5.996000000
H    -1.700000000     3.420000000     5.636000000
H    -0.421000000     2.769000000     6.117000000
O     0.384000000    -4.380000000     1.969000000
H     1.218000000    -4.850000000     1.970000000
H     0.272000000    -4.094000000     1.062000000
O     1.151000000    -0.219000000     4.103000000
H     1.497000000    -0.304000000     3.214000000
H     1.456000000     0.639000000     4.398000000
O    -0.235000000    -2.472000000     3.872000000
H     0.307000000    -1.691000000     3.992000000
H     0.127000000    -2.897000000     3.094000000
O    -3.775000000    -4.095000000    -0.861000000
H    -3.848000000    -4.968000000    -1.247000000
H    -2.982000000    -3.727000000    -1.251000000
O    -4.354000000     1.091000000     2.878000000
H    -3.441000000     0.824000000     2.981000000
H    -4.860000000     0.346000000     3.202000000
O     1.144000000     4.193000000    -4.635000000
H     0.857000000     5.093000000    -4.791000000
H     1.082000000     4.083000000    -3.687000000
O    -2.200000000    -1.257000000    -3.736000000
H    -2.637000000    -1.746000000    -4.433000000
H    -1.809000000    -1.931000000    -3.180000000
O    -1.272000000    -5.831000000     3.625000000
H    -0.800000000    -5.538000000     2.846000000
H    -1.479000000    -6.749000000     3.448000000
O     4.846000000     2.435000000     4.148000000
H     4.760000000     2.025000000     3.287000000
H     5.538000000     1.935000000     4.583000000
O     4.733000000    -3.459000000    -2.544000000
H     4.196000000    -2.706000000    -2.296000000
H     5.169000000    -3.720000000    -1.733000000
O     0.511000000     5.079000000     3.495000000
H     0.958000000     5.617000000     2.841000000
H     1.213000000     4.748000000     4.054000000
O    -2.761000000    -2.011000000     3.123000000
H    -3.108000000    -2.763000000     3.602000000
H    -1.822000000    -2.022000000     3.310000000
O    -4.056000000    -6.433000000    -2.385000000
H    -4.992000000    -6.446000000    -2.186000000
H    -3.998000000    -6.761000000    -3.283000000
O    -5.938000000    -1.668000000     2.966000000
H    -5.082000000    -1.799000000     2.558000000
H    -6.477000000    -1.287000000     2.272000000
