144
-2834.71689
O     4.919000000     0.289000000    -3.042000000
H     4.389000000    -0.450000000    -2.744000000
H     5.561000000     0.420000000    -2.344000000
O    -5.048000000    -4.537000000     0.564000000
H    -5.418000000    -4.274000000     1.406000000
H    -4.330000000    -3.922000000     0.415000000
O     1.082000000    -4.785000000     1.895000000
H     1.648000000    -5.428000000     1.469000000
H     0.760000000    -5.230000000     2.679000000
O    -4.893000000     2.885000000    -2.387000000
H    -5.315000000     3.142000000    -3.207000000
H    -4.693000000     3.713000000    -1.951000000
O    -1.774000000     0.746000000     2.476000000
H    -1.231000000     0.744000000     1.688000000
H    -2.489000000     1.348000000     2.272000000
O    -5.363000000    -3.641000000    -4.520000000
H    -4.560000000    -4.132000000    -4.347000000
H    -5.672000000    -3.374000000    -3.655000000
O    -7.073000000    -3.368000000    -1.947000000
H    -7.069000000    -4.229000000    -1.530000000
H    -6.872000000    -2.758000000    -1.237000000
O     4.679000000    -0.210000000     3.418000000
H     4.162000000     0.535000000     3.724000000
H     4.638000000    -0.155000000     2.463000000
O     5.985000000     3.553000000    -3.916000000
H     6.531000000     3.741000000    -3.153000000
H     5.477000000     2.782000000    -3.664000000
O    -3.031000000    -6.597000000     2.556000000
H    -2.864000000    -6.905000000     1.665000000
H    -3.630000000    -5.858000000     2.446000000
O     6.247000000     4.378000000    -0.890000000
H     6.490000000     3.814000000    -0.156000000
H     6.744000000     5.183000000    -0.747000000
O    -2.668000000    -3.853000000    -3.109000000
H    -1.776000000    -3.658000000    -3.397000000
H    -2.980000000    -3.035000000    -2.724000000
O    -0.251000000    -7.342000000    -1.193000000
H    -1.156000000    -7.650000000    -1.240000000
H    -0.323000000    -6.425000000    -0.928000000
O     0.172000000    -1.297000000    -3.435000000
H    -0.433000000    -1.753000000    -4.019000000
H     1.036000000    -1.446000000    -3.821000000
O    -7.055000000    -0.744000000    -4.358000000
H    -7.136000000    -0.666000000    -3.408000000
H    -7.831000000    -1.235000000    -4.626000000
O    -3.616000000    -3.370000000     5.631000000
H    -4.428000000    -2.942000000     5.901000000
H    -3.661000000    -3.390000000     4.675000000
O     3.151000000     1.840000000     4.308000000
H     2.384000000     1.269000000     4.289000000
H     3.146000000     2.219000000     5.186000000
O     4.170000000     3.348000000     2.153000000
H     3.958000000     2.927000000     2.986000000
H     3.342000000     3.731000000     1.860000000
O     2.780000000     1.779000000    -4.242000000
H     2.896000000     2.692000000    -4.507000000
H     3.633000000     1.521000000    -3.894000000
O    -4.033000000    -5.826000000    -1.576000000
H    -4.186000000    -5.422000000    -0.722000000
H    -3.635000000    -5.132000000    -2.102000000
O    -0.489000000    -4.873000000    -0.529000000
H    -0.052000000    -4.702000000     0.305000000
H    -1.299000000    -4.365000000    -0.484000000
O     0.648000000     0.692000000     3.808000000
H     0.835000000    -0.210000000     3.546000000
H    -0.275000000     0.819000000     3.588000000
O     3.114000000     4.816000000    -1.214000000
H     2.996000000     4.204000000    -0.487000000
H     4.054000000     4.800000000    -1.390000000
O    -0.022000000     6.333000000     0.993000000
H    -0.465000000     7.165000000     0.827000000
H     0.199000000     6.002000000     0.122000000
O     0.607000000     5.334000000    -1.771000000
H     0.428000000     4.433000000    -2.039000000
H     1.555000000     5.428000000    -1.865000000
O     3.196000000     5.238000000     4.293000000
H     2.873000000     4.875000000     3.468000000
H     3.275000000     6.177000000     4.126000000
O    -3.414000000     3.434000000     2.921000000
H    -4.122000000     2.918000000     3.309000000
H    -3.785000000     3.775000000     2.107000000
O     3.779000000    -2.708000000     2.874000000
H     4.321000000    -1.932000000     2.736000000
H     4.223000000    -3.190000000     3.572000000
O    -5.822000000     1.848000000     1.614000000
H    -5.645000000     1.448000000     0.762000000
H    -5.404000000     1.262000000     2.245000000
O    -4.910000000     0.650000000    -0.550000000
H    -4.399000000    -0.115000000    -0.816000000
H    -4.700000000     1.317000000    -1.203000000
O     1.656000000     4.497000000     2.027000000
H     0.853000000     4.166000000     2.430000000
H     1.369000000     5.239000000     1.496000000
O    -2.771000000     1.557000000    -3.205000000
H    -3.712000000     1.724000000    -3.263000000
H    -2.693000000     0.605000000    -3.273000000
O    -0.144000000     3.259000000    -3.395000000
H     0.655000000     2.748000000    -3.520000000
H    -0.824000000     2.605000000    -3.232000000
O     3.379000000    -3.736000000     0.344000000
H     3.273000000    -4.686000000     0.382000000
H     3.419000000    -3.463000000     1.261000000
O     0.624000000    -1.494000000     6.186000000
H     0.938000000    -1.649000000     5.295000000
H     0.003000000    -2.205000000     6.348000000
O     1.236000000    -2.110000000     3.600000000
H     2.087000000    -2.459000000     3.336000000
H     0.602000000    -2.607000000     3.084000000
O     7.114000000     0.327000000    -1.538000000
H     7.411000000     1.051000000    -0.987000000
H     7.882000000    -0.236000000    -1.628000000
O     2.705000000    -4.228000000    -2.236000000
H     1.994000000    -4.862000000    -2.330000000
H     2.768000000    -4.078000000    -1.293000000
O    -6.173000000    -2.290000000     2.312000000
H    -6.308000000    -1.598000000     2.959000000
H    -6.466000000    -1.906000000     1.486000000
O    -3.808000000    -0.989000000    -3.984000000
H    -3.882000000    -1.060000000    -3.032000000
H    -4.618000000    -1.375000000    -4.317000000
O    -3.007000000    -3.055000000     3.038000000
H    -3.520000000    -2.280000000     2.813000000
H    -2.649000000    -3.357000000     2.203000000
O     5.935000000    -2.816000000     0.465000000
H     6.713000000    -3.358000000     0.335000000
H     5.249000000    -3.259000000    -0.035000000
O     6.299000000     2.370000000     1.067000000
H     5.483000000     2.720000000     1.423000000
H     6.089000000     1.466000000     0.830000000
O    -6.711000000    -1.210000000    -0.051000000
H    -6.111000000    -0.465000000    -0.103000000
H    -7.583000000    -0.817000000    -0.076000000
O    -0.445000000    -5.380000000     4.294000000
H    -1.256000000    -5.244000000     3.804000000
H    -0.290000000    -4.546000000     4.737000000
O     4.805000000    -0.182000000     0.608000000
H     4.224000000    -0.187000000    -0.153000000
H     5.324000000    -0.981000000     0.518000000
O     3.335000000    -1.154000000    -1.445000000
H     2.445000000    -0.917000000    -1.706000000
H     3.353000000    -2.110000000    -1.499000000
O    -0.049000000     2.861000000     5.521000000
H     0.557000000     2.183000000     5.222000000
H    -0.207000000     3.399000000     4.745000000
