144
-2823.58577
O    -4.984000000    -5.774000000     1.850000000
H    -5.349000000    -5.785000000     2.735000000
H    -4.366000000    -5.043000000     1.855000000
O    -0.366000000    -3.191000000     2.397000000
H    -0.926000000    -3.568000000     3.076000000
H    -0.977000000    -2.872000000     1.733000000
O    -4.526000000     2.091000000    -2.185000000
H    -5.258000000     2.542000000    -1.764000000
H    -3.763000000     2.632000000    -1.984000000
O     3.554000000    -5.442000000     2.192000000
H     3.932000000    -4.635000000     1.844000000
H     3.571000000    -5.323000000     3.142000000
O    -2.557000000     0.463000000     2.270000000
H    -2.696000000     0.296000000     1.338000000
H    -2.740000000     1.396000000     2.376000000
O    -6.471000000    -4.069000000    -4.513000000
H    -6.389000000    -5.016000000    -4.397000000
H    -6.281000000    -3.705000000    -3.649000000
O    -6.297000000    -3.865000000    -1.759000000
H    -6.101000000    -2.944000000    -1.933000000
H    -6.591000000    -3.879000000    -0.848000000
O     0.407000000     3.920000000    -4.910000000
H     0.006000000     3.772000000    -5.766000000
H    -0.099000000     3.373000000    -4.310000000
O     4.816000000    -0.319000000     3.945000000
H     4.782000000     0.264000000     4.704000000
H     5.394000000    -1.032000000     4.217000000
O     0.313000000    -3.013000000    -3.878000000
H     0.431000000    -2.264000000    -3.294000000
H     1.202000000    -3.323000000    -4.052000000
O    -3.651000000    -5.824000000    -5.476000000
H    -3.406000000    -5.184000000    -4.808000000
H    -3.871000000    -6.614000000    -4.982000000
O    -2.547000000    -4.079000000    -3.645000000
H    -1.592000000    -4.068000000    -3.575000000
H    -2.851000000    -3.669000000    -2.835000000
O     1.254000000     0.307000000    -2.946000000
H     0.967000000     0.470000000    -2.048000000
H     2.118000000    -0.094000000    -2.852000000
O     3.077000000     1.934000000     4.968000000
H     2.706000000     1.225000000     4.443000000
H     2.611000000     1.883000000     5.802000000
O     0.359000000    -0.171000000     6.766000000
H     0.308000000     0.191000000     5.881000000
H     0.973000000     0.402000000     7.225000000
O     5.172000000     2.884000000     2.979000000
H     4.459000000     2.634000000     3.567000000
H     4.983000000     3.793000000     2.748000000
O    -2.314000000     3.825000000    -2.020000000
H    -1.989000000     3.105000000    -2.560000000
H    -1.719000000     4.551000000    -2.206000000
O     4.689000000     0.838000000    -3.228000000
H     4.686000000     0.538000000    -2.319000000
H     5.481000000     1.370000000    -3.302000000
O    -4.031000000    -7.274000000    -0.663000000
H    -4.414000000    -6.924000000     0.142000000
H    -3.377000000    -6.624000000    -0.920000000
O    -1.837000000    -5.765000000    -0.662000000
H    -0.882000000    -5.818000000    -0.711000000
H    -2.023000000    -4.826000000    -0.636000000
O     0.171000000     0.300000000     3.919000000
H     0.506000000    -0.547000000     3.627000000
H    -0.553000000     0.490000000     3.323000000
O     4.105000000     6.315000000    -0.184000000
H     4.927000000     5.967000000    -0.530000000
H     4.304000000     7.226000000     0.033000000
O     2.325000000     6.032000000    -2.647000000
H     2.202000000     5.082000000    -2.660000000
H     2.877000000     6.190000000    -1.881000000
O    -1.453000000    -1.087000000    -5.768000000
H    -2.379000000    -1.103000000    -5.527000000
H    -1.091000000    -1.882000000    -5.376000000
O    -3.375000000     2.939000000     2.706000000
H    -4.040000000     3.597000000     2.503000000
H    -2.613000000     3.447000000     2.985000000
O     1.149000000     0.003000000    -5.808000000
H     1.240000000    -0.038000000    -4.856000000
H     0.296000000    -0.395000000    -5.985000000
O     4.351000000    -1.910000000     1.807000000
H     4.365000000    -1.187000000     2.433000000
H     5.035000000    -2.505000000     2.113000000
O    -7.437000000    -0.246000000     0.862000000
H    -6.991000000    -0.927000000     0.358000000
H    -7.137000000    -0.379000000     1.762000000
O    -5.253000000    -0.845000000    -0.832000000
H    -4.464000000    -1.375000000    -0.941000000
H    -5.009000000     0.020000000    -1.162000000
O     3.948000000     5.409000000     2.547000000
H     3.712000000     6.283000000     2.857000000
H     3.782000000     5.436000000     1.604000000
O    -1.545000000     5.779000000    -0.066000000
H    -1.320000000     6.153000000    -0.918000000
H    -1.882000000     4.907000000    -0.269000000
O    -4.092000000     1.295000000    -4.871000000
H    -4.284000000     1.774000000    -4.065000000
H    -4.037000000     0.379000000    -4.599000000
O    -3.245000000    -1.613000000     3.864000000
H    -4.173000000    -1.493000000     4.066000000
H    -2.994000000    -0.812000000     3.404000000
O    -0.786000000     1.984000000    -3.536000000
H    -0.002000000     1.749000000    -3.040000000
H    -0.833000000     1.331000000    -4.234000000
O     0.895000000    -5.390000000     0.378000000
H     1.556000000    -5.886000000     0.863000000
H     0.657000000    -4.672000000     0.965000000
O     2.342000000    -1.923000000     6.443000000
H     2.346000000    -2.024000000     5.491000000
H     1.591000000    -1.356000000     6.621000000
O    -1.232000000     6.314000000    -2.932000000
H    -0.720000000     7.122000000    -2.975000000
H    -1.857000000     6.387000000    -3.652000000
O     1.971000000    -2.032000000     3.346000000
H     2.782000000    -1.916000000     2.850000000
H     1.550000000    -2.791000000     2.942000000
O     3.107000000    -4.663000000    -1.419000000
H     2.497000000    -4.755000000    -0.688000000
H     2.756000000    -5.238000000    -2.099000000
O    -3.997000000    -1.262000000    -4.280000000
H    -3.630000000    -1.366000000    -3.402000000
H    -4.720000000    -1.887000000    -4.313000000
O    -3.414000000    -3.637000000     2.098000000
H    -3.582000000    -2.937000000     2.729000000
H    -3.263000000    -3.182000000     1.270000000
O    -1.434000000     4.946000000     3.036000000
H    -1.165000000     5.134000000     2.137000000
H    -2.146000000     5.563000000     3.207000000
O     7.404000000     3.895000000     1.648000000
H     7.975000000     4.451000000     2.177000000
H     6.906000000     3.386000000     2.287000000
O    -1.300000000    -7.035000000     2.148000000
H    -1.981000000    -7.093000000     2.817000000
H    -1.709000000    -6.552000000     1.430000000
O     2.846000000    -1.965000000    -2.556000000
H     3.666000000    -1.726000000    -2.988000000
H     2.951000000    -2.890000000    -2.336000000
O     6.784000000     1.811000000    -0.417000000
H     6.901000000     2.525000000     0.209000000
H     5.974000000     1.381000000    -0.141000000
O     4.565000000    -0.444000000    -0.733000000
H     4.723000000    -1.054000000    -0.013000000
H     3.678000000    -0.646000000    -1.029000000
O    -0.104000000     3.475000000     5.020000000
H     0.247000000     2.760000000     4.489000000
H    -0.719000000     3.925000000     4.440000000
