144
-2795.57440
O     4.505000000     4.562000000    -2.691000000
H     4.745000000     4.120000000    -1.877000000
H     5.332000000     4.906000000    -3.029000000
O    -0.966000000    -4.046000000     3.219000000
H    -1.193000000    -3.611000000     2.397000000
H    -0.539000000    -4.859000000     2.949000000
O     0.451000000    -3.531000000     5.517000000
H     0.049000000    -2.724000000     5.836000000
H    -0.063000000    -3.766000000     4.744000000
O    -4.872000000     1.950000000    -1.257000000
H    -4.306000000     2.480000000    -0.696000000
H    -4.358000000     1.810000000    -2.052000000
O     1.801000000    -5.778000000     0.128000000
H     1.895000000    -6.658000000    -0.236000000
H     1.527000000    -5.921000000     1.033000000
O    -1.557000000     3.936000000     2.835000000
H    -1.697000000     3.005000000     3.010000000
H    -1.297000000     4.302000000     3.680000000
O    -6.093000000    -1.684000000    -3.247000000
H    -5.144000000    -1.696000000    -3.366000000
H    -6.315000000    -0.755000000    -3.184000000
O     1.710000000     5.956000000     3.296000000
H     1.890000000     5.196000000     2.742000000
H     1.204000000     6.545000000     2.737000000
O    -3.747000000    -5.455000000     3.620000000
H    -2.890000000    -5.343000000     4.033000000
H    -3.575000000    -5.361000000     2.683000000
O     0.796000000     1.880000000    -4.425000000
H     0.209000000     1.138000000    -4.570000000
H     1.528000000     1.512000000    -3.929000000
O     0.108000000    -5.738000000    -2.262000000
H     0.950000000    -6.071000000    -2.572000000
H     0.332000000    -5.167000000    -1.527000000
O    -3.359000000    -2.317000000    -3.062000000
H    -2.772000000    -3.048000000    -3.254000000
H    -3.222000000    -2.137000000    -2.132000000
O     0.291000000    -6.495000000     2.585000000
H     0.924000000    -6.298000000     3.275000000
H    -0.198000000    -7.248000000     2.917000000
O     4.299000000    -0.202000000     3.033000000
H     3.477000000    -0.243000000     3.521000000
H     4.236000000    -0.915000000     2.397000000
O     2.185000000    -0.868000000     4.733000000
H     2.289000000    -1.585000000     5.358000000
H     1.380000000    -0.427000000     5.006000000
O     1.501000000     3.206000000     2.758000000
H     0.854000000     2.574000000     2.444000000
H     1.253000000     3.371000000     3.667000000
O    -2.325000000     1.369000000     3.276000000
H    -2.633000000     1.370000000     4.182000000
H    -3.101000000     1.146000000     2.760000000
O    -1.947000000     3.562000000    -5.449000000
H    -2.853000000     3.425000000    -5.725000000
H    -1.423000000     3.291000000    -6.202000000
O    -4.364000000    -3.359000000     5.170000000
H    -4.336000000    -4.249000000     4.820000000
H    -4.138000000    -2.802000000     4.425000000
O     1.637000000    -1.228000000    -2.650000000
H     1.722000000    -1.971000000    -2.052000000
H     0.834000000    -0.787000000    -2.371000000
O    -3.535000000    -5.150000000     0.837000000
H    -4.110000000    -4.819000000     0.148000000
H    -2.829000000    -4.505000000     0.891000000
O    -2.118000000    -7.440000000    -1.469000000
H    -1.523000000    -8.185000000    -1.563000000
H    -1.548000000    -6.672000000    -1.512000000
O     2.227000000    -3.150000000     3.201000000
H     1.492000000    -3.763000000     3.214000000
H     1.901000000    -2.376000000     3.660000000
O    -0.385000000     6.292000000    -2.130000000
H    -0.076000000     5.476000000    -2.524000000
H     0.391000000     6.852000000    -2.101000000
O    -6.737000000    -4.735000000     1.690000000
H    -6.835000000    -4.118000000     0.965000000
H    -5.793000000    -4.782000000     1.838000000
O    -2.654000000    -7.881000000     1.274000000
H    -2.757000000    -6.960000000     1.036000000
H    -2.801000000    -8.358000000     0.457000000
O     4.220000000     2.950000000    -6.068000000
H     4.111000000     2.376000000    -5.310000000
H     4.615000000     2.391000000    -6.737000000
O    -4.654000000     0.184000000     0.627000000
H    -4.244000000    -0.555000000     0.178000000
H    -4.795000000     0.834000000    -0.061000000
O    -1.566000000    -4.299000000    -3.958000000
H    -2.072000000    -4.854000000    -4.553000000
H    -1.060000000    -4.915000000    -3.429000000
O    -0.838000000    -0.336000000    -4.520000000
H    -1.788000000    -0.438000000    -4.567000000
H    -0.496000000    -1.226000000    -4.613000000
O     3.457000000     0.922000000    -3.305000000
H     4.323000000     0.993000000    -2.904000000
H     3.204000000     0.010000000    -3.168000000
O     0.337000000     4.525000000    -4.316000000
H     0.721000000     3.654000000    -4.222000000
H    -0.497000000     4.372000000    -4.762000000
O     4.060000000     2.722000000     3.995000000
H     4.173000000     1.772000000     3.968000000
H     3.306000000     2.890000000     3.430000000
O     6.572000000     1.312000000     2.005000000
H     5.725000000     1.050000000     2.366000000
H     7.197000000     1.135000000     2.708000000
O     4.367000000    -2.282000000     0.999000000
H     3.944000000    -3.129000000     0.856000000
H     5.035000000    -2.229000000     0.316000000
O     2.088000000     0.011000000    -6.724000000
H     2.308000000     0.465000000    -7.538000000
H     1.356000000     0.511000000    -6.362000000
O    -0.280000000     0.290000000     5.451000000
H    -0.500000000     0.686000000     4.608000000
H    -1.062000000     0.418000000     5.987000000
O    -3.488000000     1.661000000    -3.499000000
H    -2.650000000     2.109000000    -3.619000000
H    -3.594000000     1.134000000    -4.291000000
O    -4.358000000    -2.522000000     2.433000000
H    -4.941000000    -2.403000000     1.683000000
H    -3.513000000    -2.751000000     2.045000000
O     2.904000000    -3.422000000    -1.290000000
H     2.622000000    -4.201000000    -0.810000000
H     3.023000000    -2.755000000    -0.614000000
O     5.976000000     0.695000000    -0.885000000
H     5.248000000     0.168000000    -0.554000000
H     6.217000000     1.259000000    -0.150000000
O    -3.051000000     3.512000000     0.418000000
H    -3.211000000     4.421000000     0.165000000
H    -2.132000000     3.496000000     0.685000000
O     2.716000000     5.721000000    -4.601000000
H     1.870000000     5.275000000    -4.637000000
H     3.275000000     5.132000000    -4.094000000
O     7.628000000     3.347000000     0.556000000
H     7.425000000     2.485000000     0.920000000
H     7.157000000     3.961000000     1.119000000
O    -8.116000000    -1.599000000    -0.579000000
H    -7.459000000    -1.078000000    -1.040000000
H    -8.939000000    -1.134000000    -0.728000000
O    -3.962000000     4.698000000    -3.141000000
H    -4.851000000     4.348000000    -3.201000000
H    -3.457000000     4.177000000    -3.764000000
O    -5.400000000    -3.590000000    -0.977000000
H    -5.820000000    -3.152000000    -1.717000000
H    -4.511000000    -3.236000000    -0.963000000
O    -6.229000000     0.380000000     2.799000000
H    -6.922000000    -0.280000000     2.775000000
H    -5.592000000     0.082000000     2.150000000
