144
-2802.80511
O    -2.521000000    -3.099000000     6.490000000
H    -2.847000000    -2.211000000     6.639000000
H    -3.295000000    -3.656000000     6.577000000
O     4.091000000    -4.276000000     4.835000000
H     3.728000000    -3.867000000     4.050000000
H     3.341000000    -4.700000000     5.253000000
O    -1.034000000    -8.169000000     2.213000000
H    -0.797000000    -7.255000000     2.055000000
H    -1.991000000    -8.172000000     2.208000000
O    -1.336000000     4.974000000     0.306000000
H    -0.418000000     4.708000000     0.256000000
H    -1.827000000     4.171000000     0.132000000
O     3.239000000    -0.791000000    -0.205000000
H     2.407000000    -0.430000000     0.102000000
H     3.184000000    -1.725000000    -0.003000000
O     1.099000000     3.944000000     4.043000000
H     1.311000000     4.804000000     3.678000000
H     1.661000000     3.335000000     3.563000000
O    -4.166000000    -1.473000000     3.559000000
H    -3.948000000    -0.983000000     2.767000000
H    -3.830000000    -2.354000000     3.396000000
O    -2.376000000    -3.585000000    -2.304000000
H    -2.382000000    -4.370000000    -1.757000000
H    -3.181000000    -3.123000000    -2.070000000
O    -2.921000000     2.197000000    -4.133000000
H    -2.347000000     2.330000000    -4.887000000
H    -2.902000000     1.252000000    -3.982000000
O     1.926000000    -5.021000000     6.258000000
H     1.844000000    -4.982000000     7.210000000
H     1.078000000    -4.720000000     5.932000000
O    -0.001000000    -5.753000000    -3.351000000
H    -0.473000000    -5.525000000    -2.550000000
H     0.080000000    -6.706000000    -3.318000000
O    -1.906000000     7.637000000    -0.735000000
H    -1.888000000     6.706000000    -0.515000000
H    -1.801000000     7.660000000    -1.687000000
O     6.035000000    -0.185000000     1.470000000
H     5.947000000     0.709000000     1.141000000
H     5.499000000    -0.203000000     2.262000000
O     4.666000000    -1.246000000     6.173000000
H     4.520000000    -1.525000000     7.076000000
H     3.898000000    -1.560000000     5.697000000
O    -1.301000000    -6.712000000     6.214000000
H    -0.995000000    -6.097000000     5.547000000
H    -2.254000000    -6.629000000     6.197000000
O     1.423000000     4.559000000    -0.266000000
H     2.052000000     3.846000000    -0.152000000
H     1.688000000     4.984000000    -1.081000000
O     2.881000000     2.475000000     2.408000000
H     3.350000000     2.480000000     1.573000000
H     3.104000000     1.631000000     2.802000000
O    -0.234000000    -3.994000000     4.845000000
H    -0.988000000    -3.560000000     5.244000000
H     0.004000000    -3.432000000     4.108000000
O     5.777000000     2.647000000     1.123000000
H     6.616000000     3.099000000     1.033000000
H     5.170000000     3.160000000     0.590000000
O    -4.740000000    -2.168000000    -1.917000000
H    -4.796000000    -1.212000000    -1.916000000
H    -5.467000000    -2.449000000    -2.473000000
O     2.799000000    -3.299000000     2.789000000
H     2.867000000    -3.459000000     1.847000000
H     1.988000000    -2.800000000     2.888000000
O     3.026000000     1.916000000    -6.922000000
H     2.848000000     1.286000000    -7.620000000
H     2.851000000     1.434000000    -6.114000000
O     1.163000000    -3.240000000    -4.547000000
H     1.962000000    -3.262000000    -5.074000000
H     0.788000000    -4.116000000    -4.643000000
O     0.999000000    -1.370000000     7.830000000
H     1.094000000    -2.199000000     8.300000000
H     0.778000000    -0.733000000     8.510000000
O     2.988000000    -3.587000000     0.147000000
H     2.357000000    -3.471000000    -0.563000000
H     3.223000000    -4.514000000     0.109000000
O    -1.709000000    -5.933000000    -0.820000000
H    -1.276000000    -5.614000000    -0.028000000
H    -1.408000000    -6.837000000    -0.910000000
O     2.134000000    -1.513000000     5.424000000
H     1.669000000    -1.420000000     6.255000000
H     1.481000000    -1.873000000     4.824000000
O    -2.726000000     2.725000000    -0.537000000
H    -2.012000000     2.121000000    -0.743000000
H    -3.409000000     2.514000000    -1.173000000
O    -2.943000000    -5.216000000    -4.485000000
H    -2.750000000    -4.679000000    -5.254000000
H    -2.709000000    -4.662000000    -3.741000000
O    -0.209000000    -5.567000000     1.342000000
H     0.742000000    -5.665000000     1.296000000
H    -0.342000000    -4.713000000     1.753000000
O     1.491000000     6.209000000     2.747000000
H     1.621000000     5.918000000     1.845000000
H     2.076000000     6.960000000     2.843000000
O     3.718000000     0.611000000    -2.437000000
H     3.494000000     0.062000000    -1.685000000
H     4.656000000     0.779000000    -2.340000000
O    -0.162000000    -1.336000000    -5.778000000
H     0.244000000    -1.990000000    -5.209000000
H    -0.881000000    -0.979000000    -5.257000000
O     2.015000000     5.789000000    -2.844000000
H     1.500000000     5.396000000    -3.550000000
H     1.634000000     6.660000000    -2.727000000
O     0.979000000    -3.587000000    -1.598000000
H     0.070000000    -3.306000000    -1.492000000
H     1.259000000    -3.187000000    -2.421000000
O    -1.081000000    -0.599000000     5.492000000
H    -0.620000000    -0.691000000     4.659000000
H    -1.032000000    -1.467000000     5.891000000
O    -6.073000000    -4.094000000     0.454000000
H    -5.836000000    -4.944000000     0.085000000
H    -5.793000000    -3.460000000    -0.206000000
O     3.337000000     2.835000000    -0.525000000
H     3.512000000     1.992000000    -0.943000000
H     3.933000000     3.446000000    -0.958000000
O     3.910000000     0.004000000     3.310000000
H     3.425000000    -0.812000000     3.183000000
H     4.181000000    -0.019000000     4.227000000
O    -3.898000000     1.238000000     1.397000000
H    -3.147000000     1.243000000     1.991000000
H    -3.629000000     1.792000000     0.665000000
O     2.427000000     0.131000000    -5.125000000
H     1.649000000    -0.422000000    -5.192000000
H     2.600000000     0.189000000    -4.185000000
O    -1.361000000     2.536000000    -6.220000000
H    -0.556000000     2.047000000    -6.390000000
H    -1.615000000     2.884000000    -7.075000000
O    -0.870000000     1.292000000     7.413000000
H    -0.621000000     0.955000000     8.274000000
H    -0.982000000     0.509000000     6.873000000
O    -3.246000000    -3.978000000     2.887000000
H    -2.351000000    -3.750000000     2.635000000
H    -3.357000000    -4.879000000     2.583000000
O    -3.281000000     2.448000000     4.373000000
H    -2.648000000     1.954000000     3.852000000
H    -3.024000000     3.362000000     4.259000000
O    -1.210000000     2.228000000     2.726000000
H    -0.693000000     2.989000000     2.990000000
H    -0.773000000     1.903000000     1.939000000
O    -4.749000000     0.922000000    -1.968000000
H    -5.034000000     1.042000000    -2.874000000
H    -5.557000000     0.960000000    -1.456000000
O    -2.297000000    -0.902000000    -4.168000000
H    -2.196000000    -1.576000000    -3.496000000
H    -3.148000000    -1.088000000    -4.566000000
