144
-2821.12313
O    -1.097000000    -2.745000000     5.873000000
H    -0.790000000    -2.327000000     6.677000000
H    -0.759000000    -2.191000000     5.170000000
O     0.296000000     4.070000000     2.389000000
H     0.200000000     5.005000000     2.573000000
H     1.171000000     3.989000000     2.009000000
O    -4.636000000     2.216000000    -1.110000000
H    -4.914000000     3.106000000    -0.894000000
H    -4.120000000     1.936000000    -0.353000000
O     2.965000000    -1.586000000     0.162000000
H     2.860000000    -0.638000000     0.076000000
H     2.372000000    -1.953000000    -0.492000000
O    -3.669000000    -3.723000000    -4.134000000
H    -3.590000000    -3.402000000    -5.032000000
H    -3.927000000    -2.953000000    -3.626000000
O    -2.421000000    -4.446000000    -0.129000000
H    -2.156000000    -4.981000000     0.619000000
H    -3.210000000    -4.873000000    -0.461000000
O    -1.676000000     4.097000000     5.534000000
H    -0.874000000     4.490000000     5.880000000
H    -1.373000000     3.358000000     5.007000000
O     0.696000000    -2.904000000    -5.679000000
H     0.283000000    -3.248000000    -6.471000000
H     1.318000000    -3.584000000    -5.419000000
O    -1.239000000    -5.149000000     7.410000000
H    -1.088000000    -4.524000000     6.701000000
H    -2.121000000    -4.947000000     7.724000000
O    -4.240000000    -1.287000000     0.232000000
H    -4.688000000    -0.446000000     0.330000000
H    -3.501000000    -1.237000000     0.838000000
O     3.547000000     2.229000000    -2.105000000
H     4.079000000     2.058000000    -1.328000000
H     2.704000000     2.520000000    -1.758000000
O     5.012000000     2.358000000     0.203000000
H     5.885000000     2.748000000     0.258000000
H     4.902000000     1.899000000     1.036000000
O     2.175000000    -3.387000000     4.398000000
H     1.378000000    -3.728000000     3.992000000
H     2.059000000    -2.437000000     4.391000000
O     1.043000000    -4.471000000     1.968000000
H     1.822000000    -4.702000000     1.461000000
H     0.958000000    -3.524000000     1.858000000
O     2.145000000     3.879000000    -7.229000000
H     2.140000000     3.150000000    -6.609000000
H     1.237000000     3.948000000    -7.525000000
O     5.200000000     1.587000000     5.941000000
H     4.885000000     0.985000000     6.616000000
H     4.424000000     1.787000000     5.418000000
O     3.587000000     0.296000000    -4.096000000
H     4.485000000     0.377000000    -4.416000000
H     3.582000000     0.784000000    -3.272000000
O     3.388000000    -4.226000000     0.378000000
H     4.255000000    -4.152000000    -0.020000000
H     2.943000000    -3.415000000     0.136000000
O    -3.238000000     1.283000000    -5.190000000
H    -2.553000000     0.637000000    -5.018000000
H    -3.943000000     0.780000000    -5.600000000
O    -1.177000000    -0.780000000    -6.266000000
H    -0.665000000    -1.537000000    -5.980000000
H    -0.582000000    -0.288000000    -6.832000000
O    -1.400000000     3.995000000    -0.430000000
H    -0.634000000     3.603000000    -0.850000000
H    -1.131000000     4.892000000    -0.230000000
O    -2.561000000     1.762000000     0.588000000
H    -2.222000000     2.502000000     0.084000000
H    -1.818000000     1.164000000     0.663000000
O    -0.920000000    -6.393000000     1.572000000
H    -0.753000000    -7.046000000     2.251000000
H    -0.231000000    -5.740000000     1.693000000
O    -1.022000000    -3.938000000    -2.416000000
H    -1.711000000    -4.198000000    -3.027000000
H    -1.311000000    -4.279000000    -1.569000000
O    -3.477000000    -2.302000000    -6.534000000
H    -4.188000000    -1.687000000    -6.713000000
H    -2.686000000    -1.763000000    -6.546000000
O    -4.201000000    -1.550000000    -2.727000000
H    -4.802000000    -0.877000000    -3.047000000
H    -3.919000000    -1.230000000    -1.870000000
O     2.964000000    -2.500000000    -3.530000000
H     3.529000000    -1.732000000    -3.446000000
H     2.331000000    -2.258000000    -4.207000000
O     5.529000000    -1.093000000    -1.362000000
H     4.868000000    -1.293000000    -0.699000000
H     5.153000000    -0.368000000    -1.863000000
O    -3.708000000     3.369000000    -3.183000000
H    -3.973000000     2.835000000    -2.434000000
H    -3.724000000     2.765000000    -3.926000000
O     1.311000000    -3.057000000    -1.298000000
H     1.817000000    -3.098000000    -2.109000000
H     0.413000000    -2.887000000    -1.583000000
O     3.944000000    -3.925000000     6.579000000
H     3.423000000    -3.909000000     5.776000000
H     3.312000000    -3.759000000     7.278000000
O     5.156000000    -1.461000000     4.189000000
H     4.378000000    -1.687000000     4.700000000
H     5.186000000    -2.119000000     3.495000000
O     2.657000000     4.306000000     0.052000000
H     2.666000000     5.163000000    -0.375000000
H     3.543000000     3.966000000    -0.076000000
O     4.573000000     0.260000000     2.018000000
H     4.942000000    -0.113000000     2.819000000
H     3.951000000    -0.400000000     1.711000000
O     5.003000000     3.793000000    -3.913000000
H     4.291000000     3.400000000    -3.409000000
H     5.778000000     3.288000000    -3.666000000
O    -1.397000000    -0.133000000     7.040000000
H    -1.509000000     0.787000000     7.279000000
H    -2.275000000    -0.508000000     7.112000000
O    -0.450000000     6.697000000    -0.682000000
H    -0.871000000     7.538000000    -0.502000000
H     0.410000000     6.929000000    -1.030000000
O     2.585000000     1.541000000     4.883000000
H     2.584000000     1.016000000     5.684000000
H     2.013000000     1.063000000     4.283000000
O     0.415000000    -5.529000000    -4.056000000
H     0.081000000    -4.883000000    -3.434000000
H     1.080000000    -6.012000000    -3.565000000
O     2.848000000     4.032000000     6.307000000
H     2.553000000     3.181000000     5.981000000
H     3.652000000     4.210000000     5.819000000
O     2.006000000     1.685000000    -5.528000000
H     1.238000000     1.857000000    -4.983000000
H     2.555000000     1.110000000    -4.995000000
O    -4.232000000    -3.483000000     1.973000000
H    -4.112000000    -2.887000000     1.233000000
H    -5.071000000    -3.224000000     2.354000000
O     1.058000000    -0.835000000     6.123000000
H     0.322000000    -0.376000000     6.527000000
H     0.979000000    -0.637000000     5.189000000
O    -2.684000000    -1.752000000     3.454000000
H    -1.749000000    -1.820000000     3.646000000
H    -2.981000000    -2.660000000     3.388000000
O    -3.265000000     0.958000000     4.182000000
H    -2.448000000     1.334000000     3.856000000
H    -3.202000000     0.027000000     3.970000000
O    -0.987000000     2.323000000     3.856000000
H    -0.435000000     2.988000000     3.446000000
H    -0.500000000     1.506000000     3.749000000
O     3.321000000    -0.156000000     7.323000000
H     2.605000000    -0.776000000     7.185000000
H     3.746000000    -0.456000000     8.126000000
O    -2.129000000     5.522000000    -3.161000000
H    -2.607000000     4.733000000    -2.907000000
H    -1.617000000     5.753000000    -2.385000000
