144
-2812.42638
O    -0.504000000    -0.653000000     4.721000000
H    -0.798000000    -1.232000000     4.018000000
H     0.227000000    -1.119000000     5.126000000
O     0.719000000     3.082000000    -1.784000000
H     0.967000000     2.166000000    -1.908000000
H     1.025000000     3.523000000    -2.577000000
O     0.878000000     4.253000000     0.578000000
H     0.656000000     4.010000000    -0.321000000
H     1.774000000     3.939000000     0.697000000
O     6.630000000    -2.926000000    -0.861000000
H     7.414000000    -2.809000000    -0.324000000
H     6.956000000    -3.291000000    -1.683000000
O    -2.523000000     6.898000000     1.121000000
H    -2.418000000     5.959000000     0.966000000
H    -1.633000000     7.215000000     1.279000000
O    -6.100000000     1.144000000    -0.011000000
H    -5.257000000     0.869000000     0.349000000
H    -5.970000000     1.132000000    -0.960000000
O    -5.853000000    -0.661000000    -3.001000000
H    -6.509000000    -0.226000000    -3.546000000
H    -5.021000000    -0.272000000    -3.270000000
O     0.892000000     6.170000000     2.342000000
H     1.834000000     6.213000000     2.504000000
H     0.769000000     5.352000000     1.860000000
O    -5.325000000     6.040000000     2.826000000
H    -4.499000000     5.556000000     2.802000000
H    -5.091000000     6.894000000     3.189000000
O    -7.839000000     1.016000000     2.396000000
H    -7.197000000     0.691000000     3.028000000
H    -7.432000000     0.866000000     1.543000000
O     1.240000000     1.264000000     7.117000000
H     0.827000000     1.246000000     6.254000000
H     1.881000000     0.553000000     7.091000000
O    -4.392000000     3.514000000    -0.513000000
H    -4.033000000     2.771000000    -0.028000000
H    -3.692000000     3.767000000    -1.115000000
O     5.160000000     2.977000000     2.001000000
H     5.694000000     3.563000000     2.538000000
H     4.618000000     2.503000000     2.632000000
O     4.387000000     2.974000000    -0.933000000
H     4.493000000     3.038000000     0.016000000
H     5.005000000     2.293000000    -1.198000000
O    -5.128000000    -0.205000000     2.565000000
H    -4.653000000     0.136000000     1.807000000
H    -4.608000000     0.074000000     3.318000000
O     2.968000000     4.755000000     4.126000000
H     2.504000000     3.917000000     4.139000000
H     3.854000000     4.543000000     4.418000000
O    -5.157000000    -1.965000000    -0.538000000
H    -5.395000000    -1.343000000     0.150000000
H    -5.411000000    -1.530000000    -1.352000000
O     6.254000000    -0.289000000    -0.365000000
H     6.091000000    -0.144000000     0.567000000
H     6.169000000    -1.236000000    -0.478000000
O     3.942000000    -4.723000000    -1.879000000
H     3.134000000    -4.541000000    -1.399000000
H     3.856000000    -4.223000000    -2.691000000
O    -0.896000000     3.569000000     6.402000000
H    -0.920000000     2.920000000     5.699000000
H    -0.308000000     4.251000000     6.079000000
O     2.034000000     1.570000000    -3.956000000
H     2.830000000     1.122000000    -3.673000000
H     2.270000000     2.498000000    -3.960000000
O     1.904000000    -4.488000000    -0.052000000
H     1.927000000    -5.302000000     0.452000000
H     0.974000000    -4.276000000    -0.122000000
O    -0.146000000     1.702000000    -6.163000000
H     0.147000000     1.626000000    -5.255000000
H     0.516000000     1.229000000    -6.668000000
O    -2.622000000     3.764000000    -2.533000000
H    -3.005000000     4.137000000    -3.327000000
H    -2.026000000     4.442000000    -2.214000000
O     0.375000000    -2.270000000     2.377000000
H     0.175000000    -3.204000000     2.429000000
H    -0.098000000    -1.965000000     1.603000000
O     5.609000000    -1.546000000     2.216000000
H     6.073000000    -2.328000000     2.515000000
H     4.928000000    -1.880000000     1.631000000
O    -0.895000000    -4.248000000     1.114000000
H    -1.171000000    -5.162000000     1.175000000
H    -1.559000000    -3.834000000     0.562000000
O    -1.785000000     4.448000000     0.720000000
H    -2.149000000     3.691000000     1.180000000
H    -0.840000000     4.293000000     0.715000000
O     2.378000000    -0.520000000     3.636000000
H     2.852000000    -1.251000000     4.031000000
H     1.701000000    -0.935000000     3.101000000
O     4.674000000     0.758000000     3.598000000
H     4.994000000     0.228000000     2.867000000
H     3.786000000     0.436000000     3.755000000
O    -3.641000000     1.162000000    -3.521000000
H    -3.193000000     1.935000000    -3.178000000
H    -3.293000000     1.058000000    -4.407000000
O     4.155000000    -3.193000000     0.820000000
H     4.863000000    -3.441000000     0.226000000
H     3.355000000    -3.417000000     0.344000000
O     3.619000000    -3.255000000    -4.314000000
H     4.420000000    -2.734000000    -4.369000000
H     3.010000000    -2.819000000    -4.910000000
O    -2.061000000    -7.176000000    -1.670000000
H    -1.811000000    -7.740000000    -2.402000000
H    -1.984000000    -6.287000000    -2.016000000
O    -6.745000000    -2.277000000     3.720000000
H    -6.612000000    -3.219000000     3.619000000
H    -5.999000000    -1.881000000     3.270000000
O     2.855000000    -1.819000000    -6.360000000
H     2.641000000    -0.995000000    -6.798000000
H     3.447000000    -2.265000000    -6.966000000
O    -3.046000000     4.027000000     3.506000000
H    -2.283000000     3.876000000     4.065000000
H    -3.015000000     3.317000000     2.864000000
O    -5.912000000     3.105000000    -2.729000000
H    -5.553000000     2.313000000    -3.129000000
H    -5.417000000     3.208000000    -1.916000000
O    -4.961000000     3.016000000     5.166000000
H    -4.573000000     2.186000000     5.442000000
H    -4.246000000     3.484000000     4.735000000
O    -1.072000000     2.187000000     4.066000000
H    -1.555000000     2.168000000     3.240000000
H    -1.061000000     1.276000000     4.358000000
O    -2.915000000    -3.267000000    -0.448000000
H    -2.812000000    -3.658000000    -1.316000000
H    -3.732000000    -2.772000000    -0.504000000
O    -6.591000000     5.021000000     0.660000000
H    -6.407000000     5.338000000     1.544000000
H    -5.754000000     4.678000000     0.349000000
O     1.703000000     2.346000000     4.158000000
H     0.759000000     2.447000000     4.281000000
H     1.809000000     1.442000000     3.861000000
O    -3.497000000    -5.705000000     0.912000000
H    -3.361000000    -6.169000000     0.086000000
H    -3.397000000    -4.780000000     0.687000000
O     5.451000000     1.131000000    -3.000000000
H     5.737000000     0.788000000    -3.847000000
H     5.806000000     0.515000000    -2.360000000
O    -2.081000000    -4.794000000    -2.900000000
H    -2.671000000    -5.112000000    -3.584000000
H    -1.547000000    -4.129000000    -3.334000000
O    -0.313000000    -3.012000000    -4.628000000
H     0.561000000    -2.649000000    -4.487000000
H    -0.474000000    -2.893000000    -5.564000000
O    -3.110000000     0.089000000     4.169000000
H    -3.226000000    -0.382000000     4.994000000
H    -2.209000000    -0.101000000     3.909000000
