144
-2823.42455
O    -4.616000000     6.138000000     4.535000000
H    -4.187000000     5.334000000     4.241000000
H    -4.865000000     5.959000000     5.441000000
O    -1.833000000    -4.540000000    -2.135000000
H    -1.998000000    -4.891000000    -1.260000000
H    -0.893000000    -4.362000000    -2.148000000
O     1.365000000    -4.629000000    -0.737000000
H     2.265000000    -4.345000000    -0.895000000
H     1.185000000    -5.256000000    -1.437000000
O     0.524000000    -0.276000000     5.090000000
H     0.224000000     0.410000000     4.493000000
H     0.578000000    -1.061000000     4.545000000
O    -3.426000000     4.991000000    -0.640000000
H    -2.933000000     4.240000000    -0.969000000
H    -4.178000000     4.606000000    -0.191000000
O    -4.801000000     2.033000000     1.158000000
H    -5.041000000     1.122000000     0.986000000
H    -4.071000000     1.976000000     1.775000000
O     3.861000000    -4.174000000    -1.670000000
H     4.292000000    -3.380000000    -1.354000000
H     3.728000000    -4.018000000    -2.605000000
O     1.077000000    -0.465000000    -5.454000000
H     1.816000000    -0.063000000    -5.912000000
H     1.376000000    -1.351000000    -5.249000000
O    -4.785000000    -4.567000000    -0.208000000
H    -4.321000000    -3.908000000    -0.723000000
H    -5.518000000    -4.833000000    -0.763000000
O     0.563000000     1.756000000    -3.891000000
H     0.405000000     0.862000000    -4.195000000
H     0.271000000     2.310000000    -4.615000000
O    -0.156000000    -3.588000000     1.169000000
H    -0.088000000    -2.639000000     1.072000000
H     0.413000000    -3.940000000     0.484000000
O     2.827000000    -0.444000000     6.666000000
H     1.937000000    -0.665000000     6.392000000
H     3.000000000     0.404000000     6.255000000
O    -3.311000000     1.036000000    -4.965000000
H    -4.267000000     0.988000000    -4.946000000
H    -3.112000000     1.946000000    -4.742000000
O    -2.216000000    -4.616000000    -4.831000000
H    -2.227000000    -4.655000000    -3.874000000
H    -2.136000000    -3.684000000    -5.032000000
O    -2.385000000     4.356000000     3.706000000
H    -1.746000000     3.776000000     4.121000000
H    -3.051000000     3.765000000     3.355000000
O     4.683000000    -0.297000000    -6.291000000
H     4.477000000     0.616000000    -6.488000000
H     4.485000000    -0.767000000    -7.101000000
O    -2.562000000     2.657000000    -1.369000000
H    -1.874000000     2.311000000    -1.938000000
H    -2.836000000     1.907000000    -0.842000000
O     5.564000000    -3.318000000     1.919000000
H     4.771000000    -2.850000000     1.659000000
H     6.200000000    -3.110000000     1.234000000
O    -4.604000000    -2.240000000     1.358000000
H    -5.386000000    -1.708000000     1.502000000
H    -4.936000000    -3.059000000     0.989000000
O    -0.292000000     6.239000000     5.073000000
H    -0.476000000     6.105000000     6.003000000
H    -0.250000000     5.356000000     4.707000000
O     1.354000000     3.587000000     3.613000000
H     0.728000000     2.867000000     3.538000000
H     1.736000000     3.664000000     2.739000000
O     2.965000000    -2.471000000     3.791000000
H     2.479000000    -1.660000000     3.942000000
H     3.824000000    -2.182000000     3.484000000
O    -2.839000000    -2.041000000     3.696000000
H    -3.429000000    -1.956000000     2.948000000
H    -3.238000000    -2.721000000     4.240000000
O     5.521000000     1.636000000     2.845000000
H     5.544000000     2.581000000     2.697000000
H     5.245000000     1.268000000     2.006000000
O     2.856000000     3.369000000     0.773000000
H     3.495000000     2.782000000     0.369000000
H     2.101000000     3.342000000     0.185000000
O    -3.884000000    -2.589000000    -1.924000000
H    -3.058000000    -3.049000000    -2.069000000
H    -3.624000000    -1.710000000    -1.649000000
O    -0.262000000    -2.285000000     3.592000000
H    -0.149000000    -3.017000000     2.987000000
H    -1.210000000    -2.166000000     3.651000000
O     3.974000000    -3.144000000    -4.013000000
H     4.092000000    -2.241000000    -3.717000000
H     3.431000000    -3.070000000    -4.798000000
O     4.396000000    -0.531000000    -3.493000000
H     3.807000000     0.212000000    -3.362000000
H     4.571000000    -0.536000000    -4.434000000
O    -2.218000000     6.899000000     2.958000000
H    -2.401000000     5.972000000     3.114000000
H    -2.023000000     7.253000000     3.825000000
O     0.452000000    -6.093000000    -3.197000000
H    -0.054000000    -6.839000000    -2.875000000
H     0.010000000    -5.834000000    -4.006000000
O     2.300000000    -3.153000000    -6.056000000
H     1.591000000    -3.794000000    -6.093000000
H     2.910000000    -3.429000000    -6.740000000
O     4.898000000    -1.462000000    -0.895000000
H     5.797000000    -1.395000000    -0.574000000
H     4.943000000    -1.155000000    -1.801000000
O    -1.818000000     3.683000000     8.260000000
H    -1.202000000     3.580000000     7.535000000
H    -1.785000000     2.847000000     8.724000000
O    -5.294000000     3.765000000     3.212000000
H    -5.235000000     4.620000000     2.787000000
H    -5.309000000     3.138000000     2.489000000
O     4.650000000     1.146000000     0.172000000
H     4.929000000     1.517000000    -0.666000000
H     4.621000000     0.202000000     0.018000000
O     2.575000000     2.585000000     5.928000000
H     3.497000000     2.525000000     5.679000000
H     2.159000000     3.043000000     5.197000000
O    -6.877000000     3.228000000    -0.574000000
H    -6.167000000     2.770000000    -0.124000000
H    -7.623000000     3.157000000     0.021000000
O     5.540000000     2.056000000    -2.196000000
H     5.828000000     2.968000000    -2.230000000
H     5.098000000     1.912000000    -3.032000000
O    -5.617000000     2.124000000     5.415000000
H    -4.776000000     1.802000000     5.739000000
H    -5.409000000     2.538000000     4.578000000
O    -6.428000000    -0.165000000     0.336000000
H    -7.103000000     0.447000000     0.628000000
H    -6.893000000    -0.992000000     0.208000000
O    -1.880000000    -2.023000000    -5.006000000
H    -1.252000000    -1.302000000    -5.035000000
H    -2.713000000    -1.608000000    -4.780000000
O     0.031000000    -4.793000000    -6.198000000
H    -0.834000000    -4.682000000    -5.803000000
H    -0.026000000    -5.625000000    -6.668000000
O    -0.918000000     2.912000000     5.649000000
H    -0.035000000     2.713000000     5.961000000
H    -1.064000000     2.292000000     4.934000000
O     3.346000000     1.912000000    -4.280000000
H     3.294000000     2.350000000    -5.130000000
H     2.444000000     1.660000000    -4.084000000
O     0.845000000     2.511000000    -1.151000000
H     0.774000000     2.190000000    -2.050000000
H     0.725000000     1.731000000    -0.609000000
O    -4.308000000     0.078000000    -1.261000000
H    -5.072000000    -0.369000000    -0.895000000
H    -4.664000000     0.626000000    -1.961000000
O    -3.233000000     0.806000000     4.692000000
H    -2.847000000     1.242000000     3.932000000
H    -2.866000000    -0.078000000     4.673000000
