144
-2795.35522
O     1.031000000    -2.927000000    -4.565000000
H     1.196000000    -3.234000000    -5.456000000
H     1.639000000    -2.198000000    -4.446000000
O     0.089000000     0.467000000     6.482000000
H     0.511000000    -0.309000000     6.114000000
H     0.794000000     1.110000000     6.559000000
O    -0.065000000     1.555000000    -4.554000000
H    -0.692000000     1.576000000    -5.277000000
H     0.567000000     0.880000000    -4.804000000
O    -0.525000000     6.282000000     3.969000000
H    -0.841000000     5.787000000     3.213000000
H     0.313000000     5.874000000     4.189000000
O     5.804000000    -0.195000000    -0.629000000
H     5.733000000    -1.138000000    -0.480000000
H     6.340000000     0.123000000     0.097000000
O    -1.591000000     6.723000000     0.866000000
H    -1.377000000     6.550000000    -0.051000000
H    -1.551000000     5.864000000     1.287000000
O     7.416000000     1.809000000    -1.987000000
H     7.109000000     1.126000000    -1.390000000
H     7.302000000     1.433000000    -2.860000000
O    -1.482000000    -1.935000000    -4.886000000
H    -2.122000000    -2.522000000    -4.485000000
H    -0.649000000    -2.399000000    -4.807000000
O    -5.044000000    -0.608000000    -0.195000000
H    -4.354000000    -0.105000000     0.239000000
H    -5.536000000     0.043000000    -0.695000000
O    -6.418000000    -3.235000000    -0.918000000
H    -5.757000000    -3.647000000    -1.475000000
H    -6.157000000    -2.315000000    -0.879000000
O    -6.339000000     3.298000000     4.823000000
H    -5.765000000     2.842000000     5.438000000
H    -5.939000000     3.148000000     3.966000000
O    -5.170000000     2.843000000     2.441000000
H    -4.656000000     3.650000000     2.434000000
H    -4.571000000     2.174000000     2.110000000
O     4.340000000     3.302000000     3.701000000
H     3.964000000     2.780000000     4.409000000
H     5.161000000     3.639000000     4.061000000
O     0.295000000     3.965000000    -0.319000000
H     0.687000000     3.438000000    -1.015000000
H     0.970000000     4.008000000     0.358000000
O    -3.711000000     0.713000000     4.484000000
H    -3.131000000     0.289000000     5.117000000
H    -3.119000000     1.107000000     3.843000000
O     1.527000000     3.971000000     4.032000000
H     1.994000000     3.756000000     3.225000000
H     0.773000000     3.381000000     4.036000000
O    -3.509000000    -3.083000000     0.820000000
H    -4.133000000    -2.358000000     0.870000000
H    -3.700000000    -3.506000000    -0.017000000
O     0.929000000     2.623000000    -2.443000000
H     0.894000000     1.851000000    -1.878000000
H     0.656000000     2.302000000    -3.303000000
O     3.721000000    -4.535000000     0.280000000
H     2.766000000    -4.605000000     0.287000000
H     3.929000000    -4.187000000    -0.588000000
O     2.193000000     0.323000000    -4.883000000
H     2.929000000     0.550000000    -4.315000000
H     2.596000000     0.115000000    -5.726000000
O     1.209000000    -4.587000000     0.287000000
H     0.521000000    -3.951000000     0.483000000
H     0.763000000    -5.282000000    -0.197000000
O    -2.738000000     0.468000000    -4.600000000
H    -2.017000000     0.659000000    -4.001000000
H    -2.504000000    -0.372000000    -4.996000000
O    -1.974000000     3.976000000    -1.667000000
H    -1.689000000     4.740000000    -2.167000000
H    -1.218000000     3.748000000    -1.125000000
O     4.547000000    -0.099000000    -3.735000000
H     5.428000000     0.166000000    -4.000000000
H     4.689000000    -0.711000000    -3.013000000
O     0.669000000    -3.464000000     3.506000000
H     1.367000000    -4.044000000     3.202000000
H     0.304000000    -3.089000000     2.705000000
O     3.231000000    -0.768000000     3.274000000
H     2.646000000    -1.162000000     3.921000000
H     3.824000000    -1.477000000     3.025000000
O    -1.279000000     4.270000000     1.760000000
H    -0.603000000     4.215000000     1.085000000
H    -1.419000000     3.363000000     2.034000000
O     2.696000000     1.293000000     4.978000000
H     2.889000000     0.698000000     5.702000000
H     2.958000000     0.810000000     4.194000000
O     6.162000000     1.068000000     1.920000000
H     7.083000000     1.319000000     1.993000000
H     5.681000000     1.889000000     2.026000000
O    -5.483000000     0.579000000    -3.397000000
H    -5.570000000     1.513000000    -3.588000000
H    -4.572000000     0.375000000    -3.611000000
O     3.860000000    -3.321000000     2.838000000
H     3.964000000    -3.705000000     1.968000000
H     4.432000000    -3.842000000     3.401000000
O     3.570000000    -5.937000000    -2.780000000
H     4.252000000    -6.607000000    -2.728000000
H     4.020000000    -5.164000000    -3.123000000
O     2.525000000     3.870000000     1.245000000
H     2.893000000     3.838000000     0.362000000
H     3.287000000     3.834000000     1.824000000
O    -5.507000000    -1.068000000     5.802000000
H    -5.133000000    -1.752000000     5.248000000
H    -5.317000000    -0.253000000     5.338000000
O     0.841000000    -5.712000000    -3.483000000
H     1.777000000    -5.787000000    -3.297000000
H     0.741000000    -4.837000000    -3.857000000
O     4.759000000     0.321000000    -6.571000000
H     4.771000000    -0.047000000    -5.688000000
H     5.325000000     1.091000000    -6.517000000
O     5.265000000    -3.910000000    -2.873000000
H     6.065000000    -4.429000000    -2.963000000
H     5.434000000    -3.338000000    -2.124000000
O    -7.034000000     1.695000000    -1.442000000
H    -6.456000000     1.378000000    -2.136000000
H    -6.493000000     2.304000000    -0.939000000
O    -4.150000000     6.295000000     4.419000000
H    -5.063000000     6.233000000     4.699000000
H    -3.761000000     5.461000000     4.682000000
O    -4.279000000     2.746000000    -0.877000000
H    -3.878000000     2.125000000    -0.269000000
H    -3.540000000     3.225000000    -1.252000000
O    -3.128000000     4.096000000     5.493000000
H    -2.908000000     3.437000000     6.151000000
H    -2.343000000     4.163000000     4.950000000
O    -0.746000000     2.729000000     4.784000000
H    -1.602000000     2.569000000     4.387000000
H    -0.443000000     1.863000000     5.057000000
O     6.128000000    -3.096000000    -0.179000000
H     5.958000000    -3.661000000     0.575000000
H     7.080000000    -3.107000000    -0.275000000
O    -0.751000000    -3.019000000     0.903000000
H    -0.614000000    -2.218000000     0.396000000
H    -1.686000000    -3.016000000     1.106000000
O    -8.120000000     2.462000000     2.200000000
H    -8.005000000     1.574000000     1.862000000
H    -7.228000000     2.794000000     2.309000000
O     4.180000000     3.073000000    -0.894000000
H     4.392000000     2.142000000    -0.965000000
H     4.228000000     3.398000000    -1.793000000
O    -4.104000000    -4.030000000    -1.770000000
H    -4.067000000    -4.940000000    -1.475000000
H    -3.821000000    -4.063000000    -2.684000000
O    -7.730000000    -0.238000000     1.634000000
H    -8.031000000    -1.094000000     1.940000000
H    -6.829000000    -0.389000000     1.349000000
