144
-2811.82153
O    -0.124000000     4.829000000     3.475000000
H    -0.131000000     3.872000000     3.460000000
H     0.563000000     5.073000000     2.855000000
O     0.319000000     1.785000000     5.922000000
H     0.468000000     2.675000000     6.243000000
H     0.518000000     1.832000000     4.987000000
O     1.626000000    -0.593000000     4.864000000
H     0.860000000    -0.022000000     4.802000000
H     2.234000000    -0.117000000     5.430000000
O    -2.679000000     3.574000000    -1.718000000
H    -2.156000000     2.879000000    -2.118000000
H    -2.815000000     3.281000000    -0.816000000
O    -2.880000000     3.296000000     5.235000000
H    -2.287000000     2.571000000     5.037000000
H    -2.879000000     3.830000000     4.441000000
O    -1.839000000     5.802000000    -0.424000000
H    -1.843000000     5.340000000    -1.262000000
H    -2.376000000     5.258000000     0.152000000
O     3.762000000     0.463000000     3.223000000
H     3.233000000    -0.152000000     3.731000000
H     3.895000000     0.025000000     2.382000000
O     1.877000000    -4.544000000    -2.872000000
H     1.394000000    -4.026000000    -3.515000000
H     2.174000000    -5.313000000    -3.359000000
O    -0.427000000     4.802000000     6.597000000
H    -0.380000000     5.575000000     6.035000000
H    -0.983000000     4.189000000     6.116000000
O     3.565000000     0.567000000     6.555000000
H     3.150000000     0.679000000     7.410000000
H     4.343000000     1.124000000     6.592000000
O    -2.464000000    -4.603000000    -4.591000000
H    -1.521000000    -4.707000000    -4.716000000
H    -2.779000000    -5.488000000    -4.407000000
O    -4.912000000     1.372000000    -2.116000000
H    -4.102000000     1.815000000    -2.367000000
H    -4.656000000     0.794000000    -1.397000000
O     3.400000000     3.378000000     3.144000000
H     3.884000000     2.560000000     3.261000000
H     2.479000000     3.117000000     3.174000000
O    -2.879000000     3.572000000     1.403000000
H    -2.550000000     2.751000000     1.769000000
H    -2.878000000     4.181000000     2.141000000
O    -4.869000000     5.141000000     5.535000000
H    -4.266000000     4.398000000     5.517000000
H    -4.552000000     5.724000000     4.846000000
O     5.428000000    -3.220000000    -4.341000000
H     6.014000000    -2.978000000    -5.059000000
H     5.590000000    -2.559000000    -3.667000000
O    -6.324000000    -1.694000000    -2.602000000
H    -6.064000000    -0.911000000    -3.087000000
H    -5.537000000    -2.239000000    -2.585000000
O    -2.820000000    -1.095000000     4.647000000
H    -2.718000000    -1.684000000     3.899000000
H    -2.719000000    -0.218000000     4.277000000
O    -2.926000000    -4.704000000     0.136000000
H    -2.746000000    -5.642000000     0.198000000
H    -2.118000000    -4.284000000     0.429000000
O     6.124000000     0.606000000     4.413000000
H     5.965000000     0.739000000     5.347000000
H     5.254000000     0.632000000     4.015000000
O     1.886000000     5.087000000     1.687000000
H     2.588000000     4.798000000     2.270000000
H     2.227000000     4.930000000     0.806000000
O    -0.710000000    -3.418000000     1.144000000
H     0.116000000    -3.754000000     0.797000000
H    -0.628000000    -2.467000000     1.080000000
O     3.178000000    -3.232000000     1.820000000
H     3.278000000    -2.476000000     1.242000000
H     2.593000000    -3.822000000     1.344000000
O     0.365000000    -3.410000000     4.617000000
H     0.945000000    -3.644000000     3.892000000
H     0.605000000    -2.510000000     4.835000000
O    -4.106000000    -2.671000000     2.760000000
H    -4.681000000    -3.304000000     2.330000000
H    -3.378000000    -3.196000000     3.092000000
O    -3.927000000    -3.947000000    -2.139000000
H    -3.639000000    -4.156000000    -1.251000000
H    -3.395000000    -4.510000000    -2.702000000
O     1.604000000    -4.395000000    -0.033000000
H     2.014000000    -4.113000000    -0.851000000
H     1.334000000    -5.299000000    -0.200000000
O     4.573000000    -1.322000000     0.222000000
H     5.480000000    -1.620000000     0.290000000
H     4.585000000    -0.682000000    -0.490000000
O     7.387000000    -0.332000000    -2.401000000
H     6.530000000     0.016000000    -2.153000000
H     7.518000000    -1.082000000    -1.820000000
O     4.732000000     0.360000000    -2.050000000
H     4.226000000     0.430000000    -2.860000000
H     4.538000000     1.168000000    -1.576000000
O    -2.917000000     5.719000000     3.000000000
H    -2.029000000     5.985000000     3.240000000
H    -3.427000000     6.528000000     3.034000000
O     4.878000000     2.386000000    -0.195000000
H     5.412000000     2.755000000     0.508000000
H     4.065000000     2.891000000    -0.169000000
O    -4.615000000     2.174000000     7.376000000
H    -5.206000000     2.791000000     7.807000000
H    -4.470000000     2.549000000     6.507000000
O     0.012000000    -1.676000000    -7.495000000
H    -0.725000000    -1.065000000    -7.500000000
H     0.585000000    -1.365000000    -8.197000000
O    -6.960000000     1.639000000     3.167000000
H    -6.221000000     1.181000000     2.766000000
H    -6.759000000     1.646000000     4.103000000
O     3.164000000     1.114000000    -4.442000000
H     3.712000000     1.400000000    -5.172000000
H     2.771000000     0.294000000    -4.742000000
O    -1.455000000     0.103000000     7.318000000
H    -0.751000000     0.491000000     6.799000000
H    -1.993000000    -0.364000000     6.679000000
O     3.008000000     4.746000000    -0.849000000
H     2.756000000     3.981000000    -1.365000000
H     2.512000000     5.469000000    -1.233000000
O     2.300000000     3.385000000    -3.092000000
H     2.564000000     2.604000000    -3.577000000
H     1.525000000     3.704000000    -3.554000000
O    -4.402000000    -1.188000000    -0.856000000
H    -3.673000000    -1.571000000    -0.368000000
H    -5.184000000    -1.556000000    -0.445000000
O     0.192000000    -3.914000000    -5.190000000
H     0.285000000    -3.267000000    -5.889000000
H     0.261000000    -4.759000000    -5.634000000
O    -3.592000000    -1.236000000    -3.653000000
H    -3.797000000    -1.292000000    -2.720000000
H    -3.234000000    -2.096000000    -3.871000000
O     2.782000000    -1.531000000    -5.599000000
H     2.029000000    -1.885000000    -6.072000000
H     3.331000000    -2.294000000    -5.416000000
O    -5.853000000     3.952000000     0.477000000
H    -5.575000000     4.867000000     0.437000000
H    -5.153000000     3.509000000     0.957000000
O     5.220000000     4.016000000    -2.685000000
H     5.905000000     4.005000000    -3.354000000
H     4.414000000     3.827000000    -3.165000000
O    -5.717000000     0.437000000    -4.588000000
H    -5.519000000     1.265000000    -4.150000000
H    -4.929000000    -0.093000000    -4.465000000
O    -2.213000000     1.563000000    -3.690000000
H    -2.885000000     0.922000000    -3.458000000
H    -1.607000000     1.081000000    -4.252000000
O    -5.598000000    -0.462000000     2.063000000
H    -4.904000000    -1.026000000     2.406000000
H    -6.065000000    -1.012000000     1.435000000
