144
-2768.96175
O     2.836000000    -1.791000000     5.534000000
H     2.159000000    -1.132000000     5.684000000
H     3.619000000    -1.286000000     5.315000000
O    -3.546000000    -5.454000000     3.242000000
H    -3.654000000    -4.604000000     2.815000000
H    -3.157000000    -5.247000000     4.092000000
O     0.387000000     4.494000000     3.085000000
H     0.436000000     3.540000000     3.146000000
H     1.155000000     4.805000000     3.564000000
O    -0.223000000     1.504000000    -6.225000000
H     0.187000000     2.278000000    -5.841000000
H    -0.885000000     1.854000000    -6.821000000
O     0.026000000     2.660000000     6.278000000
H    -0.872000000     2.962000000     6.412000000
H     0.121000000     2.604000000     5.327000000
O     4.031000000     3.688000000     4.819000000
H     3.483000000     2.982000000     4.475000000
H     3.634000000     4.488000000     4.475000000
O     4.404000000    -5.452000000    -3.267000000
H     3.554000000    -5.297000000    -2.854000000
H     4.851000000    -4.607000000    -3.219000000
O     0.548000000    -0.224000000     6.172000000
H    -0.331000000    -0.190000000     5.796000000
H     0.864000000     0.679000000     6.126000000
O     4.164000000    -1.266000000    -2.241000000
H     4.089000000    -0.799000000    -3.074000000
H     4.427000000    -2.153000000    -2.487000000
O    -1.472000000     2.766000000    -1.090000000
H    -1.598000000     3.405000000    -0.388000000
H    -1.103000000     1.999000000    -0.652000000
O    -2.694000000     3.493000000     3.783000000
H    -2.437000000     3.845000000     2.931000000
H    -2.450000000     2.568000000     3.744000000
O    -5.903000000    -1.007000000    -1.471000000
H    -5.727000000    -0.079000000    -1.314000000
H    -5.277000000    -1.258000000    -2.149000000
O     1.328000000     4.234000000    -1.484000000
H     0.962000000     3.366000000    -1.650000000
H     1.842000000     4.432000000    -2.267000000
O     4.086000000    -1.558000000     0.898000000
H     3.154000000    -1.538000000     1.115000000
H     4.108000000    -1.616000000    -0.058000000
O     1.641000000     3.802000000     8.083000000
H     1.746000000     4.708000000     7.794000000
H     0.983000000     3.437000000     7.492000000
O    -2.109000000     4.509000000     6.671000000
H    -2.622000000     5.080000000     7.243000000
H    -2.652000000     4.402000000     5.891000000
O     0.305000000    -0.582000000    -7.963000000
H     0.110000000    -1.154000000    -7.221000000
H    -0.165000000     0.229000000    -7.769000000
O    -4.091000000     0.863000000    -2.416000000
H    -3.327000000     0.291000000    -2.485000000
H    -4.006000000     1.274000000    -1.556000000
O     2.734000000     1.432000000     3.935000000
H     3.071000000     1.610000000     3.057000000
H     1.783000000     1.410000000     3.827000000
O    -4.095000000     1.219000000     1.448000000
H    -3.316000000     1.143000000     1.999000000
H    -4.769000000     0.728000000     1.918000000
O    -1.766000000    -6.303000000    -0.887000000
H    -2.560000000    -6.234000000    -0.357000000
H    -1.603000000    -7.244000000    -0.954000000
O     6.116000000     3.052000000     0.494000000
H     6.727000000     3.732000000     0.211000000
H     6.054000000     2.459000000    -0.254000000
O    -5.039000000     4.536000000     4.343000000
H    -4.229000000     4.114000000     4.058000000
H    -4.847000000     5.473000000     4.307000000
O    -2.251000000    -0.363000000     5.517000000
H    -2.609000000     0.276000000     6.133000000
H    -2.144000000     0.124000000     4.700000000
O    -2.098000000    -4.322000000    -2.570000000
H    -2.138000000    -4.847000000    -1.771000000
H    -2.823000000    -4.645000000    -3.106000000
O     4.057000000     1.614000000     1.384000000
H     4.962000000     1.923000000     1.339000000
H     4.041000000     0.837000000     0.825000000
O     2.222000000    -5.648000000    -1.604000000
H     1.940000000    -5.335000000    -0.744000000
H     1.549000000    -6.278000000    -1.861000000
O     1.248000000    -2.484000000     1.902000000
H     1.041000000    -3.304000000     1.453000000
H     0.458000000    -1.952000000     1.806000000
O    -3.946000000    -2.795000000     2.768000000
H    -3.770000000    -2.622000000     3.693000000
H    -4.658000000    -2.195000000     2.544000000
O     0.604000000    -5.078000000     0.591000000
H     0.371000000    -5.422000000     1.453000000
H    -0.170000000    -5.239000000     0.052000000
O     0.387000000    -4.324000000    -4.150000000
H     0.892000000    -4.966000000    -3.651000000
H    -0.460000000    -4.288000000    -3.705000000
O     4.972000000    -2.156000000    -6.101000000
H     4.197000000    -2.333000000    -5.567000000
H     5.110000000    -1.213000000    -6.017000000
O    -1.255000000     4.720000000     0.730000000
H    -0.625000000     4.627000000     1.445000000
H    -0.933000000     5.466000000     0.224000000
O     5.860000000     1.015000000    -1.374000000
H     5.989000000     1.508000000    -2.184000000
H     5.137000000     0.419000000    -1.569000000
O    -0.662000000     6.987000000     3.948000000
H    -1.614000000     6.883000000     3.934000000
H    -0.340000000     6.333000000     3.329000000
O    -5.374000000     0.297000000     5.462000000
H    -4.668000000     0.528000000     6.066000000
H    -5.780000000     1.133000000     5.236000000
O    -5.488000000    -4.018000000    -0.867000000
H    -5.184000000    -3.509000000    -1.618000000
H    -6.404000000    -4.211000000    -1.062000000
O     3.561000000     0.294000000    -4.841000000
H     3.422000000     1.185000000    -5.165000000
H     3.296000000    -0.269000000    -5.569000000
O     2.788000000     2.937000000    -5.635000000
H     1.850000000     3.123000000    -5.671000000
H     3.147000000     3.363000000    -6.414000000
O     3.318000000     6.053000000    -0.670000000
H     2.667000000     5.355000000    -0.744000000
H     3.997000000     5.815000000    -1.301000000
O    -3.942000000    -2.393000000    -2.970000000
H    -3.166000000    -2.938000000    -3.098000000
H    -4.247000000    -2.198000000    -3.857000000
O    -2.460000000    -2.075000000    -7.009000000
H    -3.078000000    -2.764000000    -6.763000000
H    -2.095000000    -2.367000000    -7.844000000
O     2.555000000    -2.628000000    -5.329000000
H     2.207000000    -2.933000000    -4.491000000
H     2.071000000    -3.129000000    -5.985000000
O    -6.001000000     1.428000000    -0.410000000
H    -6.780000000     1.771000000     0.028000000
H    -5.286000000     1.599000000     0.203000000
O    -2.473000000    -3.046000000     5.433000000
H    -2.560000000    -2.093000000     5.432000000
H    -1.531000000    -3.201000000     5.506000000
O    -3.933000000     0.143000000    -6.330000000
H    -3.663000000    -0.630000000    -6.826000000
H    -3.574000000     0.002000000    -5.454000000
O    -2.052000000     0.599000000    -4.323000000
H    -1.603000000     0.029000000    -3.699000000
H    -1.357000000     0.923000000    -4.895000000
O    -5.940000000    -0.696000000     2.855000000
H    -6.185000000    -0.305000000     3.694000000
H    -6.767000000    -0.997000000     2.480000000
