144
-2795.87728
O     4.332000000    -3.502000000     6.428000000
H     4.075000000    -4.311000000     5.985000000
H     3.587000000    -2.915000000     6.307000000
O     5.763000000     2.707000000    -0.003000000
H     5.517000000     2.448000000     0.885000000
H     6.686000000     2.465000000    -0.076000000
O     1.228000000     4.589000000     0.422000000
H     2.065000000     5.010000000     0.226000000
H     1.329000000     4.260000000     1.315000000
O    -0.745000000    -1.421000000    -5.729000000
H    -1.475000000    -1.329000000    -6.342000000
H    -0.339000000    -0.554000000    -5.708000000
O     6.058000000     3.153000000    -3.026000000
H     5.164000000     3.201000000    -2.689000000
H     6.371000000     4.057000000    -3.006000000
O    -2.863000000    -4.470000000    -1.825000000
H    -2.201000000    -4.056000000    -2.378000000
H    -2.560000000    -4.315000000    -0.930000000
O     3.397000000     4.338000000    -2.863000000
H     2.475000000     4.144000000    -2.696000000
H     3.454000000     4.431000000    -3.814000000
O    -2.259000000     3.822000000    -1.081000000
H    -1.788000000     3.916000000    -1.909000000
H    -2.429000000     2.883000000    -1.008000000
O     3.223000000    -2.325000000     1.172000000
H     3.291000000    -1.697000000     0.454000000
H     4.066000000    -2.778000000     1.175000000
O     2.359000000     4.042000000     3.346000000
H     2.420000000     3.276000000     3.917000000
H     3.268000000     4.264000000     3.145000000
O     0.094000000     6.384000000     4.282000000
H     0.271000000     7.021000000     3.590000000
H     0.683000000     5.654000000     4.092000000
O    -1.394000000    -1.793000000     5.341000000
H    -2.013000000    -2.324000000     4.840000000
H    -0.654000000    -1.665000000     4.747000000
O    -3.872000000     1.593000000    -2.926000000
H    -3.266000000     2.227000000    -3.309000000
H    -3.619000000     1.545000000    -2.005000000
O    -1.808000000     3.281000000    -3.872000000
H    -2.384000000     3.915000000    -4.298000000
H    -0.924000000     3.580000000    -4.085000000
O     0.766000000     4.396000000    -2.337000000
H     0.217000000     5.154000000    -2.538000000
H     0.656000000     4.263000000    -1.396000000
O     0.703000000    -3.408000000     2.264000000
H     1.521000000    -3.395000000     1.766000000
H     0.700000000    -2.578000000     2.740000000
O    -1.956000000     4.386000000     4.860000000
H    -1.206000000     4.953000000     4.682000000
H    -2.126000000     3.945000000     4.028000000
O     2.138000000    -2.195000000     5.437000000
H     1.523000000    -2.347000000     6.155000000
H     1.650000000    -1.657000000     4.814000000
O     2.576000000    -3.450000000    -3.371000000
H     2.228000000    -4.194000000    -3.864000000
H     2.056000000    -3.431000000    -2.568000000
O     4.182000000    -1.430000000     3.491000000
H     3.848000000    -1.481000000     2.596000000
H     3.574000000    -1.962000000     4.005000000
O    -3.008000000    -3.546000000     3.885000000
H    -3.789000000    -3.107000000     3.548000000
H    -3.326000000    -4.067000000     4.622000000
O     2.297000000     1.973000000     5.155000000
H     2.987000000     1.333000000     4.979000000
H     1.523000000     1.616000000     4.718000000
O    -3.097000000     1.368000000     7.846000000
H    -2.535000000     1.402000000     7.073000000
H    -3.988000000     1.360000000     7.495000000
O     3.127000000     2.666000000    -7.323000000
H     2.743000000     2.003000000    -6.749000000
H     3.513000000     3.306000000    -6.725000000
O    -3.622000000    -2.525000000    -4.608000000
H    -2.756000000    -2.736000000    -4.259000000
H    -3.485000000    -2.441000000    -5.552000000
O     3.671000000     2.769000000     7.487000000
H     3.241000000     2.513000000     6.671000000
H     4.154000000     1.989000000     7.758000000
O     3.786000000    -0.034000000    -0.600000000
H     3.764000000    -0.135000000    -1.551000000
H     2.931000000     0.334000000    -0.378000000
O    -1.639000000    -4.507000000     0.755000000
H    -0.929000000    -4.570000000     1.393000000
H    -2.417000000    -4.796000000     1.233000000
O     0.955000000    -5.642000000     3.901000000
H     0.246000000    -6.279000000     3.812000000
H     0.671000000    -4.893000000     3.377000000
O    -5.147000000    -0.785000000    -3.283000000
H    -4.580000000    -0.014000000    -3.278000000
H    -4.615000000    -1.471000000    -3.687000000
O    -1.031000000    -3.472000000    -3.604000000
H    -0.378000000    -3.469000000    -2.905000000
H    -0.808000000    -2.714000000    -4.143000000
O    -0.531000000     6.917000000    -0.256000000
H    -0.108000000     6.061000000    -0.189000000
H     0.194000000     7.540000000    -0.292000000
O    -2.975000000     1.452000000    -7.347000000
H    -2.452000000     1.212000000    -8.112000000
H    -2.385000000     1.325000000    -6.604000000
O    -2.635000000    -3.261000000     7.368000000
H    -2.126000000    -3.866000000     7.907000000
H    -2.040000000    -3.013000000     6.660000000
O     1.428000000    -2.416000000    -7.268000000
H     0.835000000    -1.715000000    -6.995000000
H     2.093000000    -1.974000000    -7.796000000
O    -0.273000000     3.440000000     6.835000000
H    -1.040000000     3.811000000     6.399000000
H    -0.423000000     2.494000000     6.819000000
O     3.707000000    -0.784000000    -3.209000000
H     3.295000000    -1.612000000    -3.455000000
H     4.618000000    -0.877000000    -3.488000000
O    -4.911000000    -2.467000000     2.049000000
H    -4.646000000    -2.252000000     1.155000000
H    -5.289000000    -1.656000000     2.389000000
O     0.599000000     3.806000000    -5.724000000
H     1.136000000     4.598000000    -5.679000000
H     1.084000000     3.159000000    -5.213000000
O    -1.013000000     0.900000000     6.017000000
H    -0.752000000     1.228000000     5.157000000
H    -1.000000000    -0.053000000     5.925000000
O    -0.950000000    -6.014000000    -4.602000000
H    -1.174000000    -5.121000000    -4.340000000
H    -0.585000000    -5.921000000    -5.482000000
O     0.889000000    -3.878000000    -1.506000000
H     1.535000000    -4.558000000    -1.314000000
H     0.685000000    -3.494000000    -0.653000000
O     2.484000000     1.888000000    -4.693000000
H     3.196000000     2.487000000    -4.470000000
H     2.775000000     1.037000000    -4.366000000
O    -1.529000000     2.546000000     2.372000000
H    -1.598000000     2.116000000     1.519000000
H    -0.837000000     2.066000000     2.826000000
O    -0.175000000     1.324000000    -6.361000000
H     0.034000000     1.443000000    -7.288000000
H     0.018000000     2.172000000    -5.961000000
O    -4.551000000    -1.982000000    -0.776000000
H    -4.834000000    -1.469000000    -1.533000000
H    -3.840000000    -2.529000000    -1.109000000
O     3.798000000     5.875000000    -0.374000000
H     4.624000000     5.461000000    -0.125000000
H     3.634000000     5.567000000    -1.265000000
O    -2.931000000     0.975000000    -0.327000000
H    -2.278000000     0.337000000    -0.040000000
H    -3.385000000     1.230000000     0.476000000
