144
-2808.00331
O    -4.294000000     5.120000000    -0.460000000
H    -3.908000000     5.658000000     0.231000000
H    -4.206000000     5.648000000    -1.253000000
O     2.604000000    -5.357000000     5.436000000
H     2.155000000    -4.532000000     5.620000000
H     1.969000000    -5.868000000     4.934000000
O     4.147000000     2.866000000    -0.647000000
H     4.434000000     3.779000000    -0.647000000
H     4.194000000     2.600000000     0.271000000
O     5.678000000    -3.759000000     4.536000000
H     4.838000000    -4.021000000     4.158000000
H     6.234000000    -3.574000000     3.778000000
O     2.812000000     3.212000000     6.022000000
H     2.536000000     2.632000000     5.312000000
H     2.726000000     4.094000000     5.658000000
O     0.931000000     0.607000000    -5.434000000
H     1.132000000     0.454000000    -6.357000000
H     0.618000000    -0.238000000    -5.113000000
O    -3.923000000    -2.200000000     1.649000000
H    -3.993000000    -2.572000000     0.770000000
H    -4.238000000    -1.301000000     1.555000000
O     2.247000000     5.672000000    -4.441000000
H     1.920000000     4.786000000    -4.284000000
H     2.012000000     5.856000000    -5.351000000
O    -4.912000000     0.453000000     1.864000000
H    -4.986000000     0.530000000     0.913000000
H    -4.924000000     1.357000000     2.178000000
O    -4.221000000     3.269000000    -2.972000000
H    -5.125000000     3.544000000    -2.823000000
H    -3.694000000     3.909000000    -2.493000000
O    -4.580000000     0.393000000    -3.391000000
H    -5.408000000     0.569000000    -3.839000000
H    -4.234000000     1.260000000    -3.178000000
O     4.162000000     2.244000000     1.993000000
H     3.508000000     2.066000000     2.669000000
H     4.706000000     1.457000000     1.973000000
O    -1.109000000    -4.559000000     2.212000000
H    -1.151000000    -4.639000000     1.259000000
H    -0.537000000    -3.806000000     2.364000000
O    -5.202000000    -0.325000000    -0.792000000
H    -6.155000000    -0.380000000    -0.720000000
H    -5.043000000    -0.129000000    -1.715000000
O    -2.545000000     5.320000000    -5.695000000
H    -2.178000000     4.437000000    -5.724000000
H    -2.420000000     5.661000000    -6.581000000
O     2.090000000     5.850000000    -1.186000000
H     1.422000000     6.040000000    -1.845000000
H     1.630000000     5.342000000    -0.518000000
O     3.819000000     4.935000000     2.716000000
H     4.664000000     5.372000000     2.818000000
H     4.041000000     4.016000000     2.565000000
O     3.913000000    -2.910000000     1.530000000
H     3.831000000    -2.144000000     2.098000000
H     3.103000000    -3.401000000     1.672000000
O     0.666000000    -6.409000000     3.754000000
H    -0.233000000    -6.739000000     3.771000000
H     0.743000000    -5.966000000     2.909000000
O     4.734000000    -0.353000000     2.516000000
H     5.039000000    -0.364000000     3.423000000
H     3.798000000    -0.540000000     2.575000000
O     2.096000000     1.542000000     3.923000000
H     1.156000000     1.667000000     4.051000000
H     2.187000000     0.616000000     3.700000000
O    -1.953000000     1.186000000    -6.166000000
H    -1.384000000     1.338000000    -5.411000000
H    -1.552000000     1.690000000    -6.874000000
O    -2.279000000     1.034000000     3.078000000
H    -3.140000000     0.767000000     2.757000000
H    -1.954000000     1.643000000     2.416000000
O    -1.809000000    -4.169000000    -3.665000000
H    -1.783000000    -4.487000000    -2.762000000
H    -2.064000000    -3.249000000    -3.588000000
O     5.749000000     0.062000000     5.107000000
H     4.957000000    -0.329000000     5.476000000
H     5.808000000     0.922000000     5.525000000
O    -4.426000000     2.319000000    -6.173000000
H    -4.282000000     3.139000000    -5.700000000
H    -3.580000000     1.872000000    -6.141000000
O     4.496000000     0.755000000    -2.212000000
H     3.615000000     0.398000000    -2.324000000
H     4.367000000     1.555000000    -1.703000000
O     1.689000000    -6.220000000     0.911000000
H     2.113000000    -7.023000000     1.215000000
H     1.498000000    -6.385000000    -0.013000000
O    -2.914000000    -1.572000000    -4.261000000
H    -3.342000000    -1.638000000    -5.114000000
H    -3.425000000    -0.916000000    -3.786000000
O    -0.008000000    -1.859000000    -4.224000000
H    -0.963000000    -1.842000000    -4.284000000
H     0.232000000    -2.754000000    -4.462000000
O    -1.672000000    -1.271000000     4.110000000
H    -2.057000000    -0.480000000     3.733000000
H    -0.903000000    -1.445000000     3.568000000
O    -2.651000000    -1.792000000     6.436000000
H    -2.971000000    -2.694000000     6.412000000
H    -2.462000000    -1.581000000     5.522000000
O     2.029000000    -0.163000000    -2.478000000
H     1.346000000    -0.672000000    -2.915000000
H     1.690000000    -0.014000000    -1.596000000
O     0.810000000    -3.225000000    -1.779000000
H     0.290000000    -3.077000000    -0.989000000
H     0.412000000    -2.656000000    -2.438000000
O    -0.239000000    -0.268000000     6.343000000
H    -0.188000000     0.532000000     5.819000000
H    -0.999000000    -0.734000000     5.996000000
O    -0.436000000     2.085000000     4.782000000
H    -1.056000000     2.709000000     5.160000000
H    -0.911000000     1.687000000     4.053000000
O     1.607000000    -3.713000000     7.826000000
H     0.962000000    -4.331000000     8.172000000
H     1.296000000    -3.512000000     6.943000000
O    -3.864000000    -2.854000000    -0.944000000
H    -4.683000000    -3.307000000    -1.146000000
H    -4.108000000    -1.930000000    -0.894000000
O    -3.431000000    -3.941000000     3.599000000
H    -2.769000000    -4.484000000     3.171000000
H    -3.686000000    -3.303000000     2.932000000
O     1.767000000     2.970000000    -4.814000000
H     1.263000000     2.157000000    -4.762000000
H     2.678000000     2.694000000    -4.720000000
O     3.389000000    -1.067000000     5.713000000
H     2.893000000    -1.076000000     4.894000000
H     2.746000000    -1.297000000     6.384000000
O    -2.705000000     5.910000000    -3.082000000
H    -2.876000000     5.828000000    -4.020000000
H    -1.794000000     6.201000000    -3.030000000
O     0.989000000     4.561000000     0.838000000
H     0.796000000     5.166000000     1.554000000
H     1.470000000     3.845000000     1.252000000
O     1.225000000    -6.428000000    -1.767000000
H     0.513000000    -7.036000000    -1.966000000
H     0.799000000    -5.573000000    -1.706000000
O     0.678000000    -3.201000000     5.237000000
H     0.827000000    -2.969000000     4.321000000
H    -0.271000000    -3.306000000     5.307000000
O     3.545000000    -1.635000000    -4.787000000
H     3.180000000    -0.750000000    -4.812000000
H     3.653000000    -1.875000000    -5.708000000
O    -1.529000000    -4.302000000    -0.429000000
H    -1.840000000    -5.173000000    -0.676000000
H    -2.300000000    -3.741000000    -0.508000000
O    -1.704000000     3.055000000     1.435000000
H    -1.015000000     3.422000000     0.880000000
H    -1.837000000     3.712000000     2.118000000
