144
-2836.90480
O    -3.775000000     4.498000000    -2.417000000
H    -2.894000000     4.546000000    -2.789000000
H    -3.700000000     4.932000000    -1.567000000
O    -0.474000000    -4.116000000     7.099000000
H    -0.163000000    -3.218000000     7.215000000
H    -0.821000000    -4.136000000     6.207000000
O     2.872000000    -2.760000000     6.476000000
H     2.957000000    -3.703000000     6.338000000
H     2.798000000    -2.395000000     5.594000000
O     0.514000000     4.695000000     2.544000000
H     0.962000000     4.325000000     1.782000000
H    -0.337000000     4.259000000     2.556000000
O    -2.886000000     1.049000000    -6.204000000
H    -2.754000000     0.114000000    -6.363000000
H    -2.421000000     1.220000000    -5.385000000
O    -5.081000000     4.056000000     1.253000000
H    -5.005000000     4.523000000     2.085000000
H    -4.281000000     4.281000000     0.778000000
O     3.047000000     3.917000000    -1.854000000
H     2.356000000     4.275000000    -2.412000000
H     3.534000000     3.324000000    -2.427000000
O     2.423000000    -5.392000000     5.668000000
H     1.791000000    -5.250000000     4.963000000
H     2.993000000    -6.089000000     5.342000000
O    -1.018000000     4.599000000    -6.228000000
H    -1.277000000     5.253000000    -6.878000000
H    -0.061000000     4.623000000    -6.232000000
O    -2.469000000     0.552000000     3.286000000
H    -2.877000000     1.002000000     2.546000000
H    -2.805000000     1.008000000     4.058000000
O     4.972000000    -3.907000000     0.157000000
H     5.174000000    -3.545000000    -0.706000000
H     5.802000000    -4.269000000     0.465000000
O     2.390000000     3.907000000     0.877000000
H     2.763000000     3.885000000    -0.005000000
H     2.767000000     3.143000000     1.315000000
O    -3.041000000    -2.288000000     2.914000000
H    -2.304000000    -2.656000000     2.426000000
H    -2.864000000    -1.347000000     2.941000000
O    -0.852000000     7.354000000     0.845000000
H     0.059000000     7.065000000     0.806000000
H    -0.804000000     8.308000000     0.786000000
O    -3.218000000    -7.033000000     0.896000000
H    -3.225000000    -7.671000000     0.183000000
H    -4.093000000    -7.093000000     1.280000000
O    -1.164000000     7.321000000    -2.388000000
H    -1.798000000     7.956000000    -2.724000000
H    -1.679000000     6.745000000    -1.824000000
O     1.081000000     5.807000000    -2.633000000
H     1.345000000     5.917000000    -1.720000000
H     0.295000000     6.346000000    -2.722000000
O     5.342000000    -1.530000000     1.948000000
H     4.492000000    -1.226000000     2.266000000
H     5.154000000    -2.372000000     1.533000000
O     4.933000000     0.114000000    -2.470000000
H     5.826000000     0.043000000    -2.807000000
H     5.018000000    -0.050000000    -1.531000000
O     0.523000000    -2.035000000    -2.361000000
H    -0.133000000    -1.608000000    -1.809000000
H     1.314000000    -1.509000000    -2.242000000
O     1.689000000    -1.374000000     4.068000000
H     1.153000000    -0.603000000     3.886000000
H     1.504000000    -1.972000000     3.344000000
O     0.507000000     1.049000000     3.720000000
H    -0.402000000     0.782000000     3.586000000
H     0.453000000     1.974000000     3.962000000
O    -2.206000000     3.236000000     1.600000000
H    -3.132000000     3.002000000     1.532000000
H    -1.929000000     3.378000000     0.695000000
O    -4.635000000     1.344000000    -2.352000000
H    -5.522000000     1.125000000    -2.065000000
H    -4.667000000     2.283000000    -2.534000000
O    -4.077000000     1.155000000     0.793000000
H    -4.374000000     0.487000000     0.176000000
H    -4.851000000     1.694000000     0.954000000
O     4.150000000     2.288000000    -3.644000000
H     4.376000000     1.462000000    -3.217000000
H     4.323000000     2.134000000    -4.573000000
O     3.687000000     1.576000000     2.614000000
H     3.200000000     0.824000000     2.952000000
H     4.199000000     1.885000000     3.361000000
O    -1.225000000     1.434000000    -4.080000000
H    -0.301000000     1.484000000    -4.324000000
H    -1.326000000     2.091000000    -3.391000000
O    -1.726000000    -1.527000000     5.382000000
H    -0.925000000    -1.669000000     5.885000000
H    -1.433000000    -1.090000000     4.583000000
O     6.583000000    -0.792000000    -0.312000000
H     6.218000000    -1.118000000     0.510000000
H     6.486000000     0.159000000    -0.258000000
O    -1.961000000    -5.561000000    -1.389000000
H    -1.986000000    -4.696000000    -1.797000000
H    -2.353000000    -5.431000000    -0.526000000
O     5.356000000     1.660000000     0.541000000
H     6.137000000     2.078000000     0.904000000
H     4.758000000     1.583000000     1.284000000
O    -6.386000000    -1.222000000     0.308000000
H    -6.641000000    -0.420000000     0.764000000
H    -7.215000000    -1.653000000     0.100000000
O     3.404000000    -2.007000000    -3.074000000
H     3.359000000    -2.233000000    -4.003000000
H     3.880000000    -1.177000000    -3.053000000
O    -2.667000000    -0.701000000    -3.394000000
H    -3.443000000    -0.153000000    -3.281000000
H    -1.948000000    -0.078000000    -3.507000000
O    -2.450000000    -4.125000000     5.388000000
H    -3.031000000    -3.923000000     6.122000000
H    -2.556000000    -3.387000000     4.789000000
O     0.737000000    -4.798000000    -2.343000000
H     0.569000000    -3.884000000    -2.116000000
H    -0.065000000    -5.258000000    -2.098000000
O     1.612000000     1.661000000    -4.619000000
H     2.439000000     1.792000000    -4.155000000
H     1.832000000     1.790000000    -5.542000000
O    -0.232000000    -6.421000000     0.929000000
H    -1.063000000    -5.984000000     1.117000000
H     0.391000000    -5.706000000     0.800000000
O    -1.189000000     4.525000000    -3.405000000
H    -0.373000000     4.734000000    -2.951000000
H    -1.058000000     4.853000000    -4.295000000
O    -5.323000000    -3.474000000     2.752000000
H    -5.838000000    -2.704000000     2.514000000
H    -4.414000000    -3.205000000     2.618000000
O     1.991000000     6.451000000    -0.213000000
H     2.922000000     6.670000000    -0.257000000
H     1.964000000     5.607000000     0.239000000
O     2.426000000    -5.130000000     2.723000000
H     1.648000000    -5.291000000     3.256000000
H     2.306000000    -4.242000000     2.387000000
O     3.364000000    -5.803000000    -1.053000000
H     2.577000000    -5.297000000    -1.256000000
H     3.859000000    -5.246000000    -0.453000000
O     4.280000000    -7.055000000     2.426000000
H     3.788000000    -7.809000000     2.099000000
H     3.625000000    -6.362000000     2.512000000
O     0.119000000    -4.951000000     3.973000000
H     0.187000000    -4.245000000     3.331000000
H    -0.815000000    -4.997000000     4.180000000
O    -3.045000000    -3.228000000    -2.109000000
H    -3.820000000    -2.766000000    -1.789000000
H    -2.537000000    -2.556000000    -2.565000000
O    -3.203000000     5.876000000    -0.235000000
H    -3.799000000     6.618000000    -0.336000000
H    -2.395000000     6.262000000     0.104000000
