144
-2821.62683
O    -3.771000000     3.879000000    -1.547000000
H    -3.850000000     4.102000000    -2.474000000
H    -3.165000000     4.532000000    -1.195000000
O     2.647000000    -4.568000000     5.990000000
H     2.908000000    -4.805000000     5.100000000
H     1.907000000    -3.973000000     5.871000000
O     5.089000000     1.468000000    -0.833000000
H     4.500000000     1.712000000    -0.119000000
H     5.966000000     1.632000000    -0.487000000
O    -1.945000000    -6.672000000     5.490000000
H    -1.415000000    -6.062000000     4.977000000
H    -2.846000000    -6.381000000     5.353000000
O     5.089000000    -3.689000000     4.585000000
H     5.579000000    -4.246000000     3.981000000
H     4.683000000    -3.027000000     4.025000000
O     0.146000000     1.195000000    -4.949000000
H     0.022000000     1.092000000    -5.892000000
H    -0.648000000     0.824000000    -4.561000000
O    -0.974000000     0.883000000     3.714000000
H    -1.268000000     0.567000000     2.859000000
H    -0.793000000     1.813000000     3.576000000
O     2.502000000    -7.352000000     4.172000000
H     1.729000000    -7.087000000     4.671000000
H     2.793000000    -6.550000000     3.738000000
O     0.479000000     6.101000000    -3.799000000
H     0.327000000     5.161000000    -3.892000000
H     1.347000000     6.242000000    -4.178000000
O    -3.829000000    -0.247000000     2.645000000
H    -4.753000000    -0.433000000     2.813000000
H    -3.821000000     0.655000000     2.325000000
O    -4.235000000     1.308000000    -3.781000000
H    -4.019000000     1.866000000    -3.034000000
H    -4.355000000     1.918000000    -4.509000000
O     5.246000000    -5.345000000     1.274000000
H     5.601000000    -4.709000000     0.653000000
H     5.849000000    -6.087000000     1.227000000
O     3.719000000     1.570000000     1.752000000
H     3.519000000     2.506000000     1.755000000
H     3.022000000     1.175000000     2.274000000
O    -3.045000000    -3.161000000     2.016000000
H    -2.108000000    -3.349000000     2.061000000
H    -3.289000000    -3.374000000     1.115000000
O     0.561000000     6.301000000     2.053000000
H     1.475000000     6.274000000     2.338000000
H     0.592000000     6.716000000     1.191000000
O     3.005000000     5.033000000    -1.850000000
H     2.580000000     4.199000000    -2.050000000
H     3.211000000     4.979000000    -0.917000000
O     2.915000000    -4.982000000     2.941000000
H     2.294000000    -4.286000000     2.728000000
H     3.449000000    -5.075000000     2.151000000
O     2.631000000     0.184000000    -4.399000000
H     1.793000000     0.477000000    -4.756000000
H     2.519000000    -0.758000000    -4.266000000
O     3.113000000    -1.695000000     3.080000000
H     2.564000000    -1.075000000     3.560000000
H     2.500000000    -2.346000000     2.741000000
O     1.580000000     0.697000000     3.645000000
H     0.680000000     0.861000000     3.361000000
H     1.825000000     1.484000000     4.130000000
O     5.307000000    -0.587000000     2.122000000
H     4.849000000     0.003000000     1.523000000
H     4.651000000    -1.241000000     2.362000000
O    -1.709000000    -1.580000000    -1.957000000
H    -2.568000000    -1.820000000    -1.610000000
H    -1.330000000    -1.012000000    -1.286000000
O    -4.431000000     1.997000000     0.298000000
H    -4.962000000     2.366000000     1.004000000
H    -4.434000000     2.672000000    -0.382000000
O    -4.574000000    -1.275000000    -0.857000000
H    -5.338000000    -1.582000000    -0.369000000
H    -4.253000000    -0.526000000    -0.354000000
O     3.929000000     2.269000000    -2.964000000
H     3.475000000     1.585000000    -3.455000000
H     4.283000000     1.819000000    -2.197000000
O    -0.032000000    -7.210000000     2.036000000
H    -0.424000000    -6.943000000     1.204000000
H     0.744000000    -7.710000000     1.785000000
O     6.365000000    -3.508000000    -0.508000000
H     6.902000000    -2.733000000    -0.675000000
H     5.863000000    -3.630000000    -1.314000000
O    -2.176000000    -0.828000000    -4.553000000
H    -2.807000000    -0.122000000    -4.410000000
H    -1.939000000    -1.120000000    -3.672000000
O     0.034000000     7.211000000    -0.940000000
H    -0.805000000     7.409000000    -1.356000000
H     0.583000000     6.883000000    -1.653000000
O     0.456000000    -2.401000000     5.217000000
H     0.277000000    -1.475000000     5.057000000
H     0.192000000    -2.840000000     4.409000000
O    -3.120000000    -2.576000000     4.758000000
H    -2.821000000    -3.472000000     4.598000000
H    -3.161000000    -2.179000000     3.889000000
O     2.286000000    -2.389000000    -3.819000000
H     1.496000000    -2.774000000    -3.439000000
H     2.910000000    -3.114000000    -3.859000000
O    -0.037000000    -3.578000000    -2.948000000
H    -0.679000000    -2.878000000    -2.832000000
H    -0.122000000    -4.114000000    -2.160000000
O    -1.066000000    -1.464000000     7.249000000
H    -0.995000000    -1.831000000     6.368000000
H    -1.661000000    -2.057000000     7.708000000
O    -2.254000000     0.950000000     6.264000000
H    -1.907000000     0.176000000     6.706000000
H    -1.789000000     0.979000000     5.428000000
O     6.665000000    -1.141000000    -1.607000000
H     5.787000000    -0.760000000    -1.620000000
H     7.200000000    -0.526000000    -2.110000000
O    -3.465000000    -4.040000000    -0.798000000
H    -4.258000000    -3.867000000    -0.290000000
H    -3.777000000    -4.172000000    -1.693000000
O     4.092000000    -6.307000000    -1.966000000
H     3.663000000    -6.039000000    -1.154000000
H     4.582000000    -5.533000000    -2.245000000
O     1.462000000     3.481000000    -4.209000000
H     1.054000000     2.660000000    -4.484000000
H     2.369000000     3.246000000    -4.017000000
O    -3.881000000     4.208000000    -4.310000000
H    -4.633000000     4.022000000    -4.874000000
H    -3.637000000     5.108000000    -4.524000000
O     1.954000000    -5.193000000    -0.151000000
H     1.152000000    -5.143000000    -0.672000000
H     1.938000000    -4.403000000     0.389000000
O    -5.517000000    -3.320000000     3.572000000
H    -4.569000000    -3.446000000     3.520000000
H    -5.886000000    -4.122000000     3.203000000
O     5.222000000    -3.775000000    -2.899000000
H     5.797000000    -4.049000000    -3.613000000
H     5.101000000    -2.835000000    -3.037000000
O     1.968000000    -7.976000000    -0.087000000
H     1.699000000    -8.325000000    -0.937000000
H     1.844000000    -7.030000000    -0.166000000
O    -0.185000000    -5.242000000     3.797000000
H    -0.274000000    -4.401000000     3.348000000
H    -0.016000000    -5.871000000     3.096000000
O    -0.936000000    -4.993000000    -0.869000000
H    -1.344000000    -5.858000000    -0.912000000
H    -1.672000000    -4.381000000    -0.859000000
O    -0.039000000     3.304000000     2.711000000
H    -0.671000000     3.373000000     1.995000000
H     0.490000000     4.098000000     2.641000000
O    -6.511000000    -1.833000000     0.961000000
H    -6.336000000    -1.645000000     1.883000000
H    -7.382000000    -1.469000000     0.803000000
