144
-2839.64781
O    -3.276000000     5.652000000     0.043000000
H    -2.829000000     6.495000000    -0.036000000
H    -3.224000000     5.271000000    -0.834000000
O     4.415000000     1.700000000     0.718000000
H     4.592000000     2.446000000     0.145000000
H     4.037000000     2.089000000     1.507000000
O    -2.010000000    -0.977000000    -5.135000000
H    -1.070000000    -0.902000000    -4.973000000
H    -2.074000000    -1.507000000    -5.929000000
O     3.003000000     1.787000000    -3.871000000
H     2.817000000     0.897000000    -3.571000000
H     2.705000000     2.348000000    -3.155000000
O     1.785000000     4.589000000    -4.171000000
H     1.827000000     3.898000000    -4.832000000
H     0.861000000     4.625000000    -3.921000000
O    -4.110000000     0.931000000     1.168000000
H    -4.995000000     0.699000000     0.886000000
H    -4.100000000     1.888000000     1.165000000
O    -4.988000000     3.643000000    -3.037000000
H    -5.547000000     4.056000000    -3.694000000
H    -4.401000000     4.343000000    -2.749000000
O    -4.811000000     0.783000000    -2.883000000
H    -4.629000000     1.718000000    -2.785000000
H    -4.516000000     0.573000000    -3.769000000
O     5.099000000    -3.392000000     1.886000000
H     5.741000000    -3.225000000     1.196000000
H     4.841000000    -2.521000000     2.188000000
O     3.626000000     3.038000000     3.104000000
H     3.480000000     2.426000000     3.825000000
H     4.290000000     3.643000000     3.435000000
O    -0.604000000    -3.998000000     2.802000000
H    -1.137000000    -4.019000000     2.007000000
H     0.215000000    -3.585000000     2.531000000
O    -6.162000000     0.278000000    -0.561000000
H    -6.949000000    -0.266000000    -0.547000000
H    -5.877000000     0.264000000    -1.474000000
O    -1.219000000     4.924000000    -5.422000000
H    -0.520000000     4.385000000    -5.792000000
H    -1.955000000     4.807000000    -6.023000000
O     2.834000000     5.193000000     1.617000000
H     3.701000000     5.542000000     1.821000000
H     2.881000000     4.271000000     1.872000000
O     6.996000000    -2.775000000     4.093000000
H     6.413000000    -2.450000000     3.408000000
H     7.396000000    -3.558000000     3.715000000
O     2.981000000    -4.810000000     2.842000000
H     3.903000000    -4.664000000     2.628000000
H     2.598000000    -3.933000000     2.863000000
O    -0.525000000    -6.195000000     4.648000000
H    -1.061000000    -5.981000000     5.412000000
H    -0.583000000    -5.419000000     4.090000000
O     4.178000000    -4.195000000    -2.431000000
H     3.331000000    -3.913000000    -2.776000000
H     4.801000000    -3.990000000    -3.127000000
O    -1.365000000     1.901000000     4.759000000
H    -2.311000000     1.944000000     4.894000000
H    -1.244000000     1.179000000     4.142000000
O     4.851000000    -1.049000000     3.407000000
H     5.109000000    -0.949000000     4.323000000
H     3.939000000    -0.759000000     3.382000000
O     2.654000000     1.118000000     4.811000000
H     1.903000000     1.086000000     5.404000000
H     2.469000000     0.448000000     4.153000000
O    -4.251000000     0.362000000    -5.551000000
H    -3.442000000    -0.145000000    -5.483000000
H    -4.108000000     0.943000000    -6.299000000
O    -1.935000000     0.645000000     2.414000000
H    -1.273000000     0.828000000     1.748000000
H    -2.770000000     0.770000000     1.964000000
O     6.731000000     0.178000000     1.658000000
H     6.053000000    -0.272000000     2.163000000
H     6.264000000     0.877000000     1.200000000
O    -4.404000000    -4.555000000    -2.523000000
H    -5.132000000    -4.732000000    -3.119000000
H    -4.358000000    -3.600000000    -2.477000000
O    -7.490000000     2.644000000    -0.617000000
H    -7.977000000     2.644000000     0.207000000
H    -6.892000000     1.900000000    -0.542000000
O     5.376000000     0.929000000     5.578000000
H     4.476000000     0.871000000     5.256000000
H     5.803000000     1.547000000     4.984000000
O     4.130000000    -0.314000000    -1.205000000
H     3.183000000    -0.309000000    -1.344000000
H     4.260000000     0.221000000    -0.422000000
O     0.796000000    -6.340000000     1.150000000
H     1.240000000    -5.743000000     1.752000000
H     0.368000000    -6.980000000     1.719000000
O     3.930000000    -5.826000000    -0.074000000
H     4.085000000    -5.455000000    -0.942000000
H     3.275000000    -5.249000000     0.320000000
O    -3.469000000    -1.740000000    -2.849000000
H    -2.860000000    -1.574000000    -3.568000000
H    -3.958000000    -0.922000000    -2.754000000
O    -1.769000000    -4.818000000    -3.173000000
H    -2.675000000    -4.666000000    -2.907000000
H    -1.292000000    -4.925000000    -2.350000000
O     0.056000000    -2.900000000     5.575000000
H    -0.142000000    -2.889000000     4.639000000
H    -0.475000000    -3.616000000     5.924000000
O     1.841000000    -0.555000000    -2.630000000
H     1.544000000    -0.853000000    -3.490000000
H     1.111000000    -0.752000000    -2.043000000
O    -0.008000000    -6.596000000    -1.354000000
H     0.222000000    -6.419000000    -0.442000000
H     0.031000000    -7.549000000    -1.431000000
O     3.265000000    -0.920000000     7.871000000
H     4.069000000    -0.433000000     7.689000000
H     3.210000000    -1.563000000     7.164000000
O    -3.977000000    -1.899000000     0.043000000
H    -3.388000000    -1.494000000    -0.593000000
H    -4.686000000    -1.265000000     0.151000000
O    -3.065000000    -3.838000000     4.307000000
H    -2.325000000    -4.304000000     3.916000000
H    -2.956000000    -2.932000000     4.019000000
O     2.726000000    -2.366000000     5.533000000
H     3.107000000    -2.690000000     4.716000000
H     1.832000000    -2.707000000     5.532000000
O     0.596000000     3.312000000    -6.347000000
H     0.850000000     2.392000000    -6.427000000
H     0.511000000     3.616000000    -7.250000000
O    -2.658000000     5.392000000    -3.056000000
H    -2.067000000     4.868000000    -3.597000000
H    -2.371000000     6.295000000    -3.192000000
O    -1.155000000    -3.682000000    -5.760000000
H    -1.202000000    -3.930000000    -4.837000000
H    -0.471000000    -4.244000000    -6.124000000
O     0.544000000     6.327000000     0.547000000
H    -0.061000000     6.127000000     1.262000000
H     1.358000000     5.889000000     0.793000000
O     1.483000000    -5.116000000    -3.162000000
H     1.323000000    -5.455000000    -4.043000000
H     0.770000000    -5.476000000    -2.634000000
O    -0.084000000     4.703000000     3.378000000
H    -0.343000000     3.923000000     3.870000000
H    -0.429000000     5.434000000     3.891000000
O     0.893000000    -0.893000000    -5.403000000
H     0.976000000    -1.726000000    -5.866000000
H     0.927000000    -0.231000000    -6.093000000
O    -2.562000000    -4.281000000     0.872000000
H    -2.989000000    -4.931000000     0.314000000
H    -3.021000000    -3.463000000     0.681000000
O    -3.942000000     3.599000000     2.180000000
H    -3.524000000     4.298000000     1.677000000
H    -4.019000000     3.955000000     3.066000000
