144
-2807.61597
O    -4.021000000     5.245000000    -1.841000000
H    -3.261000000     4.879000000    -2.294000000
H    -3.676000000     6.005000000    -1.372000000
O     4.836000000     2.312000000    -0.099000000
H     5.566000000     2.856000000     0.194000000
H     4.560000000     1.837000000     0.686000000
O    -1.240000000    -4.778000000     6.344000000
H    -0.693000000    -4.820000000     5.559000000
H    -1.983000000    -5.350000000     6.148000000
O     3.683000000    -4.779000000     4.857000000
H     3.808000000    -5.183000000     3.998000000
H     3.056000000    -4.073000000     4.701000000
O     1.643000000     0.516000000     5.208000000
H     1.270000000     0.421000000     4.332000000
H     1.755000000     1.460000000     5.320000000
O     1.515000000    -0.545000000    -5.173000000
H     1.430000000    -1.118000000    -5.935000000
H     0.614000000    -0.315000000    -4.944000000
O    -2.643000000     0.692000000     3.549000000
H    -3.374000000     0.126000000     3.304000000
H    -2.677000000     1.413000000     2.919000000
O     2.125000000    -7.679000000     2.568000000
H     1.607000000    -7.789000000     1.771000000
H     2.748000000    -6.984000000     2.355000000
O    -4.357000000    -1.450000000     3.058000000
H    -3.879000000    -2.169000000     3.472000000
H    -5.146000000    -1.860000000     2.703000000
O    -3.376000000     2.336000000    -3.971000000
H    -2.628000000     2.821000000    -3.623000000
H    -4.113000000     2.607000000    -3.423000000
O    -4.782000000    -0.526000000    -3.922000000
H    -5.670000000    -0.328000000    -3.624000000
H    -4.274000000     0.253000000    -3.694000000
O     6.269000000    -5.068000000     2.452000000
H     6.619000000    -4.190000000     2.305000000
H     5.333000000    -4.988000000     2.268000000
O     3.659000000     0.824000000     1.988000000
H     2.765000000     1.083000000     1.765000000
H     3.690000000    -0.114000000     1.801000000
O    -2.511000000    -4.134000000     2.713000000
H    -1.679000000    -3.752000000     2.433000000
H    -2.982000000    -4.305000000     1.897000000
O     4.086000000     6.058000000    -2.287000000
H     3.572000000     5.811000000    -1.518000000
H     3.674000000     5.588000000    -3.012000000
O     2.871000000     4.446000000    -0.262000000
H     3.223000000     3.682000000    -0.719000000
H     3.253000000     4.398000000     0.614000000
O     3.326000000    -5.128000000     1.959000000
H     2.796000000    -4.357000000     1.758000000
H     3.572000000    -5.480000000     1.103000000
O    -1.163000000    -6.945000000     2.041000000
H    -1.923000000    -7.526000000     2.020000000
H    -0.527000000    -7.360000000     1.459000000
O     5.034000000    -1.527000000    -3.009000000
H     4.142000000    -1.832000000    -2.841000000
H     5.286000000    -1.961000000    -3.824000000
O     4.232000000    -1.831000000     2.392000000
H     4.361000000    -1.571000000     3.304000000
H     3.305000000    -2.066000000     2.340000000
O     0.697000000     1.384000000     2.624000000
H     0.474000000     2.312000000     2.552000000
H     0.014000000     0.934000000     2.126000000
O    -2.901000000     2.641000000     1.456000000
H    -3.820000000     2.880000000     1.333000000
H    -2.443000000     3.074000000     0.736000000
O     6.586000000    -2.702000000     1.000000000
H     5.799000000    -2.326000000     1.394000000
H     6.633000000    -2.301000000     0.132000000
O    -2.229000000    -1.013000000    -2.376000000
H    -2.567000000    -1.907000000    -2.328000000
H    -2.089000000    -0.760000000    -1.463000000
O    -6.094000000     3.453000000    -2.588000000
H    -6.200000000     2.746000000    -1.952000000
H    -5.409000000     4.009000000    -2.216000000
O    -5.866000000     1.076000000    -1.106000000
H    -5.792000000     1.192000000    -0.158000000
H    -5.785000000     0.132000000    -1.239000000
O     4.725000000     1.222000000    -2.664000000
H     4.778000000     0.267000000    -2.638000000
H     4.946000000     1.499000000    -1.775000000
O    -1.229000000    -0.017000000    -4.715000000
H    -1.775000000     0.739000000    -4.930000000
H    -1.577000000    -0.334000000    -3.881000000
O     0.572000000     6.326000000    -0.523000000
H     0.326000000     5.887000000    -1.337000000
H     1.293000000     5.800000000    -0.176000000
O    -1.244000000    -1.687000000     4.401000000
H    -1.765000000    -0.976000000     4.029000000
H    -1.170000000    -2.326000000     3.692000000
O    -3.736000000    -3.147000000     5.503000000
H    -3.172000000    -2.946000000     6.250000000
H    -3.169000000    -3.626000000     4.897000000
O     0.786000000     5.396000000    -3.398000000
H     0.837000000     6.327000000    -3.612000000
H     1.545000000     5.008000000    -3.833000000
O     2.452000000    -2.005000000    -3.046000000
H     2.359000000    -1.679000000    -3.941000000
H     1.588000000    -2.355000000    -2.828000000
O    -0.177000000    -2.962000000    -2.666000000
H    -0.569000000    -2.141000000    -2.368000000
H    -0.528000000    -3.625000000    -2.071000000
O     0.200000000    -1.058000000     6.707000000
H     0.841000000    -0.411000000     6.411000000
H    -0.260000000    -1.321000000     5.910000000
O     6.931000000    -1.027000000    -1.423000000
H     6.269000000    -1.341000000    -2.038000000
H     7.763000000    -1.323000000    -1.794000000
O    -4.073000000    -4.007000000     0.526000000
H    -4.863000000    -4.066000000     1.064000000
H    -4.387000000    -3.713000000    -0.329000000
O    -3.104000000    -6.055000000     4.758000000
H    -3.733000000    -6.666000000     4.373000000
H    -2.673000000    -5.649000000     4.007000000
O    -2.562000000     4.954000000     2.944000000
H    -2.990000000     4.305000000     2.386000000
H    -2.420000000     4.499000000     3.774000000
O     3.029000000     1.670000000    -4.559000000
H     2.424000000     0.929000000    -4.596000000
H     3.608000000     1.469000000    -3.824000000
O     1.888000000    -2.618000000     4.444000000
H     1.558000000    -2.860000000     3.579000000
H     1.107000000    -2.365000000     4.936000000
O    -1.881000000     4.602000000    -3.201000000
H    -2.226000000     4.808000000    -4.070000000
H    -0.940000000     4.758000000    -3.274000000
O     1.389000000    -5.847000000    -1.222000000
H     0.690000000    -6.443000000    -1.493000000
H     0.931000000    -5.058000000    -0.932000000
O     4.228000000    -4.758000000    -2.951000000
H     3.701000000    -4.005000000    -2.685000000
H     3.620000000    -5.317000000    -3.434000000
O    -0.081000000    -5.279000000     3.925000000
H    -0.028000000    -4.468000000     3.419000000
H    -0.397000000    -5.931000000     3.300000000
O    -1.493000000    -4.875000000    -1.071000000
H    -1.549000000    -5.692000000    -1.566000000
H    -2.236000000    -4.909000000    -0.468000000
O     0.155000000     4.049000000     1.083000000
H     1.073000000     3.914000000     0.846000000
H    -0.078000000     4.882000000     0.672000000
O    -5.658000000     0.922000000     2.179000000
H    -5.002000000     0.348000000     2.573000000
H    -6.467000000     0.720000000     2.649000000
