144
-2804.67332
O     4.189000000    -5.047000000    -2.380000000
H     3.748000000    -4.395000000    -1.835000000
H     5.097000000    -5.035000000    -2.078000000
O     4.038000000     0.850000000    -4.706000000
H     3.158000000     1.221000000    -4.635000000
H     4.313000000     1.055000000    -5.599000000
O     1.824000000    -1.892000000    -2.536000000
H     0.921000000    -1.683000000    -2.771000000
H     2.294000000    -1.896000000    -3.370000000
O     1.775000000    -3.125000000     4.559000000
H     2.164000000    -2.476000000     3.973000000
H     2.496000000    -3.401000000     5.124000000
O    -1.830000000    -3.494000000    -2.136000000
H    -1.171000000    -3.688000000    -2.803000000
H    -1.322000000    -3.275000000    -1.354000000
O    -2.825000000    -1.554000000     4.834000000
H    -2.134000000    -1.768000000     5.460000000
H    -3.246000000    -2.393000000     4.645000000
O    -3.278000000     2.564000000    -4.808000000
H    -4.065000000     2.095000000    -5.086000000
H    -2.965000000     2.076000000    -4.047000000
O     0.395000000     4.221000000     1.956000000
H     1.181000000     4.282000000     1.413000000
H     0.538000000     4.857000000     2.657000000
O     1.651000000     1.846000000    -4.435000000
H     0.862000000     1.814000000    -3.893000000
H     1.575000000     2.666000000    -4.922000000
O     6.044000000    -5.691000000     1.507000000
H     5.330000000    -6.299000000     1.695000000
H     5.613000000    -4.845000000     1.386000000
O    -5.226000000    -1.015000000    -3.157000000
H    -4.715000000    -1.520000000    -2.524000000
H    -6.075000000    -1.456000000    -3.186000000
O     4.915000000    -1.133000000    -2.093000000
H     5.011000000    -1.472000000    -2.983000000
H     4.069000000    -1.472000000    -1.798000000
O    -4.249000000    -2.829000000    -0.991000000
H    -3.348000000    -2.685000000    -1.283000000
H    -4.210000000    -2.735000000    -0.040000000
O    -1.989000000     3.300000000     1.521000000
H    -1.098000000     3.558000000     1.757000000
H    -2.184000000     2.558000000     2.093000000
O    -4.686000000    -2.419000000     1.677000000
H    -4.776000000    -1.473000000     1.565000000
H    -4.754000000    -2.557000000     2.621000000
O    -0.029000000     1.847000000     4.639000000
H     0.275000000     1.335000000     5.388000000
H     0.772000000     2.101000000     4.181000000
O     5.997000000    -2.340000000     0.405000000
H     5.855000000    -2.655000000    -0.488000000
H     5.116000000    -2.215000000     0.758000000
O    -0.860000000    -0.970000000    -6.403000000
H    -1.508000000    -0.789000000    -5.722000000
H    -0.702000000    -1.912000000    -6.338000000
O    -0.352000000    -5.682000000     1.605000000
H    -0.621000000    -4.927000000     2.128000000
H     0.257000000    -6.159000000     2.169000000
O     3.177000000     2.059000000    -2.005000000
H     3.948000000     1.534000000    -1.788000000
H     2.862000000     1.691000000    -2.830000000
O    -2.833000000    -0.806000000    -4.537000000
H    -2.456000000    -0.265000000    -3.843000000
H    -3.692000000    -1.063000000    -4.201000000
O     5.840000000    -1.857000000     3.675000000
H     5.179000000    -1.421000000     4.214000000
H     5.783000000    -2.779000000     3.925000000
O    -4.111000000    -3.753000000     4.336000000
H    -3.925000000    -4.309000000     3.580000000
H    -4.971000000    -4.042000000     4.641000000
O     5.435000000     0.961000000    -0.374000000
H     5.342000000     0.200000000    -0.947000000
H     5.479000000     0.592000000     0.508000000
O     3.864000000    -4.319000000     2.212000000
H     3.550000000    -4.040000000     3.073000000
H     3.722000000    -5.265000000     2.201000000
O     2.438000000     2.074000000     3.555000000
H     3.008000000     2.822000000     3.731000000
H     2.395000000     2.026000000     2.600000000
O    -3.650000000     5.923000000    -2.228000000
H    -3.848000000     5.586000000    -1.353000000
H    -2.695000000     5.974000000    -2.254000000
O     1.953000000     4.443000000    -5.419000000
H     1.444000000     5.228000000    -5.623000000
H     2.842000000     4.653000000    -5.707000000
O    -1.095000000     4.821000000    -3.980000000
H    -1.094000000     3.988000000    -3.507000000
H    -0.290000000     5.256000000    -3.700000000
O    -0.964000000     2.655000000    -6.035000000
H    -1.676000000     2.528000000    -5.408000000
H    -0.541000000     3.467000000    -5.756000000
O     3.450000000    -3.117000000    -0.279000000
H     2.608000000    -2.666000000    -0.225000000
H     3.472000000    -3.678000000     0.496000000
O    -3.680000000    -4.064000000    -3.932000000
H    -2.901000000    -3.766000000    -3.462000000
H    -4.232000000    -4.458000000    -3.256000000
O    -2.937000000     4.789000000    -6.172000000
H    -2.347000000     5.233000000    -5.563000000
H    -3.343000000     4.097000000    -5.651000000
O    -4.673000000     1.263000000    -1.819000000
H    -3.826000000     1.530000000    -2.176000000
H    -4.891000000     0.461000000    -2.294000000
O    -0.609000000    -2.045000000     6.322000000
H     0.076000000    -2.673000000     6.093000000
H    -0.154000000    -1.366000000     6.821000000
O     3.678000000    -0.303000000     4.834000000
H     3.374000000     0.525000000     4.462000000
H     3.956000000    -0.079000000     5.722000000
O    -4.445000000     0.246000000     1.142000000
H    -4.501000000     1.003000000     1.725000000
H    -4.678000000     0.591000000     0.279000000
O    -0.319000000     7.322000000     0.547000000
H    -0.430000000     6.438000000     0.199000000
H    -0.894000000     7.866000000     0.008000000
O    -2.187000000     1.042000000     3.151000000
H    -2.415000000     0.192000000     2.775000000
H    -1.292000000     0.929000000     3.473000000
O     6.283000000     3.659000000    -0.066000000
H     7.178000000     3.762000000     0.260000000
H     6.108000000     2.721000000     0.011000000
O     1.421000000     4.260000000    -2.101000000
H     2.205000000     3.868000000    -2.486000000
H     0.713000000     3.661000000    -2.336000000
O     1.114000000     6.955000000    -2.292000000
H     1.219000000     6.022000000    -2.106000000
H     1.997000000     7.259000000    -2.501000000
O    -6.233000000     3.090000000    -0.482000000
H    -6.021000000     2.173000000    -0.659000000
H    -5.394000000     3.545000000    -0.538000000
O     5.974000000     0.463000000     2.346000000
H     6.480000000     0.845000000     3.063000000
H     6.053000000    -0.483000000     2.474000000
O    -5.620000000     1.321000000    -5.380000000
H    -5.837000000     0.525000000    -5.865000000
H    -6.467000000     1.674000000    -5.107000000
O    -1.143000000     5.075000000    -0.582000000
H    -0.391000000     4.576000000    -0.902000000
H    -1.769000000     4.409000000    -0.298000000
O     3.237000000     3.245000000     0.742000000
H     3.130000000     3.355000000    -0.202000000
H     4.030000000     2.717000000     0.834000000
O    -0.456000000    -4.495000000     3.978000000
H    -0.747000000    -4.892000000     4.799000000
H     0.406000000    -4.132000000     4.180000000
