144
-2788.90657
O    -3.405000000    -0.558000000    -3.567000000
H    -3.682000000    -1.015000000    -2.773000000
H    -2.459000000    -0.699000000    -3.607000000
O     2.364000000    -4.105000000     1.853000000
H     1.858000000    -4.012000000     1.046000000
H     2.422000000    -3.216000000     2.203000000
O    -1.080000000     5.506000000    -2.438000000
H    -1.828000000     4.911000000    -2.394000000
H    -0.857000000     5.543000000    -3.368000000
O     1.137000000     6.875000000    -1.462000000
H     1.242000000     6.740000000    -0.520000000
H     0.477000000     6.233000000    -1.724000000
O    -6.538000000    -0.657000000    -0.764000000
H    -5.680000000    -0.940000000    -0.447000000
H    -6.839000000    -0.027000000    -0.108000000
O     1.937000000    -0.259000000    -4.326000000
H     2.752000000    -0.358000000    -3.833000000
H     2.070000000    -0.785000000    -5.115000000
O    -0.563000000     0.048000000    -3.076000000
H     0.307000000    -0.092000000    -3.450000000
H    -0.421000000     0.038000000    -2.129000000
O     3.162000000    -3.436000000    -1.724000000
H     2.486000000    -3.452000000    -1.047000000
H     2.797000000    -3.957000000    -2.440000000
O    -0.513000000    -2.397000000     3.044000000
H    -0.997000000    -1.626000000     3.338000000
H    -0.983000000    -2.692000000     2.264000000
O    -3.440000000     3.329000000    -2.329000000
H    -4.184000000     2.727000000    -2.303000000
H    -2.728000000     2.848000000    -1.909000000
O    -4.492000000     5.770000000    -1.211000000
H    -5.411000000     5.920000000    -1.434000000
H    -4.338000000     4.853000000    -1.436000000
O    -1.157000000     6.084000000     4.595000000
H    -1.563000000     6.103000000     5.462000000
H    -0.921000000     5.166000000     4.462000000
O     1.503000000    -3.494000000     5.013000000
H     1.612000000    -4.418000000     4.786000000
H     1.148000000    -3.093000000     4.220000000
O     1.638000000     2.635000000    -4.698000000
H     1.838000000     2.407000000    -5.605000000
H     1.649000000     1.798000000    -4.233000000
O     3.658000000     3.183000000    -0.631000000
H     4.119000000     2.556000000    -1.188000000
H     3.258000000     3.799000000    -1.244000000
O     3.524000000     5.650000000    -1.892000000
H     4.207000000     6.271000000    -1.640000000
H     2.723000000     6.173000000    -1.922000000
O    -0.860000000    -6.156000000     0.726000000
H     0.094000000    -6.179000000     0.802000000
H    -1.096000000    -5.258000000     0.959000000
O     4.015000000    -5.666000000     3.142000000
H     3.494000000    -4.999000000     2.694000000
H     4.030000000    -5.384000000     4.056000000
O     5.728000000    -4.274000000    -0.606000000
H     5.941000000    -3.875000000     0.238000000
H     4.788000000    -4.127000000    -0.709000000
O     0.008000000     1.664000000     3.146000000
H    -0.393000000     0.838000000     3.416000000
H     0.536000000     1.434000000     2.381000000
O     5.915000000     5.060000000     0.206000000
H     6.630000000     4.471000000     0.447000000
H     5.261000000     4.490000000    -0.198000000
O    -1.817000000    -0.348000000     3.843000000
H    -2.661000000    -0.072000000     3.487000000
H    -2.025000000    -0.693000000     4.712000000
O    -3.030000000    -3.803000000    -1.478000000
H    -3.389000000    -4.670000000    -1.288000000
H    -2.279000000    -3.720000000    -0.891000000
O    -1.564000000    -4.445000000     4.972000000
H    -0.813000000    -5.036000000     5.032000000
H    -1.235000000    -3.688000000     4.487000000
O     5.651000000    -2.282000000    -2.862000000
H     6.267000000    -2.997000000    -2.700000000
H     4.810000000    -2.616000000    -2.550000000
O    -2.108000000    -3.645000000    -3.891000000
H    -1.594000000    -4.419000000    -3.661000000
H    -2.510000000    -3.371000000    -3.067000000
O    -1.927000000     3.542000000     3.539000000
H    -2.196000000     3.917000000     2.700000000
H    -1.365000000     2.804000000     3.302000000
O    -0.722000000    -8.241000000    -1.642000000
H    -0.293000000    -7.652000000    -2.263000000
H    -1.228000000    -7.661000000    -1.072000000
O    -3.279000000     2.676000000     5.659000000
H    -2.717000000     2.923000000     4.925000000
H    -3.682000000     1.852000000     5.385000000
O     1.228000000     6.466000000     1.156000000
H     1.526000000     7.302000000     1.515000000
H     0.395000000     6.299000000     1.596000000
O     2.105000000    -1.419000000     2.691000000
H     1.186000000    -1.572000000     2.472000000
H     2.078000000    -0.800000000     3.421000000
O     5.053000000    -1.756000000     3.227000000
H     4.710000000    -2.071000000     4.063000000
H     4.274000000    -1.537000000     2.716000000
O     2.627000000    -5.262000000    -3.822000000
H     2.253000000    -5.470000000    -4.678000000
H     1.978000000    -5.579000000    -3.194000000
O     5.048000000     0.217000000    -4.333000000
H     5.431000000    -0.661000000    -4.333000000
H     4.994000000     0.454000000    -5.259000000
O    -4.936000000     2.135000000     2.243000000
H    -5.111000000     1.298000000     2.673000000
H    -5.560000000     2.168000000     1.518000000
O     4.058000000     4.077000000    -4.301000000
H     3.324000000     3.497000000    -4.504000000
H     3.842000000     4.446000000    -3.444000000
O     4.300000000     2.609000000     3.183000000
H     4.833000000     2.000000000     2.671000000
H     3.695000000     2.990000000     2.547000000
O     0.529000000    -5.574000000    -2.087000000
H     0.412000000    -4.715000000    -1.679000000
H     0.994000000    -6.090000000    -1.428000000
O    -2.579000000     4.846000000     1.203000000
H    -3.186000000     5.343000000     1.750000000
H    -2.702000000     5.202000000     0.323000000
O     5.374000000     1.752000000    -1.995000000
H     5.336000000     1.251000000    -2.809000000
H     6.272000000     1.633000000    -1.683000000
O    -4.461000000    -2.263000000     0.157000000
H    -4.146000000    -2.821000000     0.868000000
H    -4.000000000    -2.582000000    -0.619000000
O     2.931000000    -6.883000000    -0.829000000
H     2.931000000    -7.751000000    -1.233000000
H     3.791000000    -6.813000000    -0.415000000
O    -3.248000000    -3.751000000     2.602000000
H    -2.736000000    -3.932000000     1.813000000
H    -2.818000000    -4.260000000     3.289000000
O     6.047000000    -0.896000000    -0.349000000
H     5.347000000    -0.248000000    -0.435000000
H     6.052000000    -1.356000000    -1.188000000
O     0.525000000     2.980000000     5.504000000
H    -0.088000000     2.368000000     5.913000000
H     0.298000000     2.960000000     4.574000000
O     1.438000000    -6.575000000     1.783000000
H     2.045000000    -7.292000000     1.967000000
H     1.965000000    -5.782000000     1.889000000
O     2.727000000     4.331000000     1.801000000
H     2.319000000     5.196000000     1.758000000
H     3.046000000     4.172000000     0.913000000
O    -3.499000000    -6.924000000     1.281000000
H    -4.050000000    -6.778000000     0.512000000
H    -2.609000000    -6.749000000     0.974000000
