144
-2790.18656
O    -4.250000000     1.518000000    -4.570000000
H    -4.489000000     1.456000000    -3.645000000
H    -5.088000000     1.560000000    -5.031000000
O     4.668000000    -2.511000000     2.328000000
H     3.872000000    -2.620000000     1.808000000
H     4.881000000    -1.582000000     2.248000000
O     4.400000000    -7.030000000     2.350000000
H     3.911000000    -6.626000000     3.066000000
H     4.361000000    -7.969000000     2.532000000
O    -2.146000000     4.461000000    -4.987000000
H    -1.520000000     4.550000000    -5.706000000
H    -1.831000000     3.708000000    -4.487000000
O    -2.680000000    -0.857000000    -5.100000000
H    -3.154000000    -1.675000000    -5.251000000
H    -3.174000000    -0.419000000    -4.407000000
O     2.258000000     5.386000000    -0.298000000
H     2.552000000     4.982000000     0.519000000
H     1.814000000     6.187000000    -0.022000000
O    -4.891000000     1.427000000    -1.734000000
H    -4.195000000     0.781000000    -1.609000000
H    -5.599000000     1.129000000    -1.164000000
O     1.246000000    -0.052000000    -4.453000000
H     2.141000000    -0.351000000    -4.291000000
H     0.924000000    -0.625000000    -5.147000000
O    -4.692000000     4.757000000    -4.380000000
H    -4.742000000     4.551000000    -3.447000000
H    -3.875000000     4.353000000    -4.672000000
O    -0.743000000    -1.655000000    -2.655000000
H    -0.642000000    -0.988000000    -1.975000000
H    -0.694000000    -1.167000000    -3.477000000
O     4.391000000    -2.464000000    -1.064000000
H     3.660000000    -2.655000000    -0.477000000
H     4.134000000    -2.852000000    -1.901000000
O    -2.039000000    -3.136000000     3.211000000
H    -2.266000000    -2.230000000     3.418000000
H    -1.568000000    -3.081000000     2.379000000
O    -4.837000000     5.683000000     1.899000000
H    -5.709000000     5.750000000     2.289000000
H    -4.996000000     5.357000000     1.013000000
O    -2.704000000     6.949000000    -0.872000000
H    -3.128000000     6.112000000    -0.682000000
H    -2.967000000     7.153000000    -1.769000000
O    -1.779000000     6.505000000     1.754000000
H    -2.598000000     6.168000000     2.117000000
H    -1.933000000     6.546000000     0.811000000
O     1.400000000    -3.045000000     4.160000000
H     1.871000000    -3.871000000     4.272000000
H     0.844000000    -3.189000000     3.393000000
O    -3.618000000    -4.298000000     5.335000000
H    -2.883000000    -4.207000000     4.730000000
H    -3.210000000    -4.418000000     6.193000000
O     1.383000000     2.623000000    -4.646000000
H     1.354000000     2.675000000    -5.601000000
H     1.284000000     1.690000000    -4.454000000
O    -7.158000000     1.321000000     0.130000000
H    -6.474000000     1.401000000     0.794000000
H    -7.414000000     0.399000000     0.159000000
O     3.829000000     5.793000000    -2.699000000
H     3.407000000     6.503000000    -3.182000000
H     3.186000000     5.539000000    -2.037000000
O    -1.081000000    -5.481000000     0.923000000
H    -0.853000000    -5.680000000     1.831000000
H    -0.806000000    -4.572000000     0.801000000
O    -4.246000000     4.325000000    -1.310000000
H    -5.197000000     4.402000000    -1.390000000
H    -4.076000000     3.385000000    -1.373000000
O     0.224000000    -1.006000000     5.242000000
H     0.951000000    -1.592000000     5.035000000
H    -0.550000000    -1.569000000     5.224000000
O     2.578000000     1.523000000     2.099000000
H     1.779000000     1.412000000     1.583000000
H     3.216000000     1.876000000     1.479000000
O    -3.162000000    -1.131000000     5.565000000
H    -3.341000000    -0.703000000     6.403000000
H    -3.914000000    -1.706000000     5.425000000
O    -3.092000000    -3.558000000     0.031000000
H    -3.119000000    -4.392000000     0.500000000
H    -2.381000000    -3.662000000    -0.602000000
O    -0.832000000    -5.688000000     3.709000000
H    -0.407000000    -5.871000000     4.547000000
H    -1.190000000    -4.806000000     3.811000000
O     7.298000000    -1.922000000    -1.623000000
H     6.417000000    -2.296000000    -1.647000000
H     7.806000000    -2.537000000    -1.095000000
O    -0.886000000    -4.147000000    -1.708000000
H    -0.007000000    -4.527000000    -1.700000000
H    -0.747000000    -3.226000000    -1.929000000
O    -0.001000000    -8.324000000    -0.036000000
H    -0.283000000    -7.412000000     0.027000000
H    -0.659000000    -8.740000000    -0.593000000
O     0.781000000    -3.757000000     7.365000000
H     0.830000000    -3.870000000     6.416000000
H     0.434000000    -4.590000000     7.687000000
O     3.237000000    -0.834000000     4.210000000
H     2.988000000    -1.637000000     3.752000000
H     2.800000000    -0.135000000     3.722000000
O     6.480000000    -3.708000000     4.034000000
H     5.813000000    -3.298000000     3.483000000
H     7.071000000    -2.992000000     4.266000000
O     3.408000000    -3.441000000    -3.555000000
H     2.886000000    -3.674000000    -2.786000000
H     3.531000000    -4.269000000    -4.020000000
O     4.024000000    -0.989000000    -4.224000000
H     3.740000000    -1.822000000    -3.846000000
H     3.768000000    -1.045000000    -5.144000000
O    -3.206000000     1.605000000     4.698000000
H    -2.952000000     0.774000000     5.099000000
H    -4.137000000     1.500000000     4.499000000
O     4.038000000     3.918000000    -4.636000000
H     3.179000000     3.544000000    -4.833000000
H     3.874000000     4.529000000    -3.918000000
O     1.880000000    -4.655000000    -1.165000000
H     1.849000000    -4.169000000    -0.341000000
H     2.103000000    -5.550000000    -0.908000000
O    -1.016000000     3.254000000     4.379000000
H    -1.817000000     2.804000000     4.111000000
H    -1.078000000     3.308000000     5.332000000
O     5.510000000     0.386000000    -2.511000000
H     5.032000000    -0.063000000    -3.208000000
H     6.056000000    -0.295000000    -2.118000000
O    -3.677000000    -0.793000000    -1.395000000
H    -3.021000000    -1.187000000    -0.820000000
H    -4.065000000    -1.535000000    -1.858000000
O     2.530000000    -6.951000000     0.093000000
H     1.865000000    -7.626000000     0.232000000
H     2.994000000    -6.897000000     0.929000000
O    -4.992000000    -2.462000000     2.085000000
H    -4.168000000    -2.695000000     1.657000000
H    -5.667000000    -2.874000000     1.546000000
O     5.103000000     0.054000000     0.292000000
H     4.593000000    -0.739000000     0.123000000
H     5.094000000     0.526000000    -0.541000000
O     1.557000000    -7.223000000     3.003000000
H     1.803000000    -7.598000000     3.849000000
H     0.863000000    -6.597000000     3.212000000
O     0.340000000     5.140000000    -3.646000000
H    -0.135000000     5.222000000    -2.819000000
H     0.524000000     4.204000000    -3.725000000
O    -3.912000000    -6.305000000     1.204000000
H    -2.979000000    -6.253000000     1.409000000
H    -3.955000000    -6.847000000     0.416000000
O    -5.336000000     0.223000000     1.892000000
H    -5.190000000    -0.715000000     2.018000000
H    -5.736000000     0.515000000     2.711000000
