144
-2803.97626
O    -0.200000000     0.351000000    -3.591000000
H     0.051000000     0.317000000    -2.668000000
H    -0.384000000    -0.559000000    -3.823000000
O     2.011000000    -4.054000000     1.620000000
H     1.782000000    -4.252000000     0.712000000
H     1.175000000    -3.846000000     2.037000000
O    -2.718000000    -7.676000000    -2.989000000
H    -2.721000000    -7.236000000    -2.139000000
H    -3.326000000    -7.166000000    -3.524000000
O    -5.117000000     0.743000000    -1.681000000
H    -4.670000000     0.282000000    -2.390000000
H    -5.485000000     0.046000000    -1.137000000
O    -3.679000000     4.440000000    -2.557000000
H    -3.722000000     3.824000000    -1.826000000
H    -4.142000000     3.999000000    -3.269000000
O    -0.095000000     3.029000000    -4.592000000
H     0.758000000     3.291000000    -4.938000000
H     0.062000000     2.173000000    -4.192000000
O     3.169000000    -3.715000000    -2.526000000
H     2.455000000    -3.539000000    -1.913000000
H     3.661000000    -4.429000000    -2.121000000
O    -5.199000000    -4.085000000     1.015000000
H    -5.767000000    -4.693000000     1.488000000
H    -4.766000000    -3.577000000     1.701000000
O    -3.509000000    -4.373000000    -4.582000000
H    -3.955000000    -5.219000000    -4.536000000
H    -4.176000000    -3.736000000    -4.327000000
O     6.318000000    -0.710000000    -1.802000000
H     5.879000000    -1.152000000    -2.529000000
H     6.090000000     0.213000000    -1.910000000
O    -3.695000000     5.489000000     0.930000000
H    -3.563000000     4.636000000     1.344000000
H    -3.413000000     5.360000000     0.024000000
O    -1.768000000     6.638000000     2.748000000
H    -0.941000000     6.337000000     2.371000000
H    -2.440000000     6.280000000     2.167000000
O     4.651000000    -5.828000000     1.805000000
H     4.230000000    -6.280000000     2.536000000
H     4.109000000    -5.052000000     1.659000000
O     5.269000000     1.833000000    -2.469000000
H     5.530000000     1.778000000    -3.388000000
H     4.652000000     2.564000000    -2.439000000
O    -5.730000000     0.839000000     1.592000000
H    -5.629000000     0.225000000     0.865000000
H    -6.618000000     1.183000000     1.494000000
O     1.913000000     5.579000000    -2.833000000
H     1.091000000     5.711000000    -2.361000000
H     1.904000000     6.245000000    -3.521000000
O    -1.517000000    -6.439000000    -0.607000000
H    -0.627000000    -6.666000000    -0.878000000
H    -1.605000000    -5.512000000    -0.826000000
O    -6.288000000    -1.603000000    -0.314000000
H    -5.984000000    -2.355000000     0.194000000
H    -7.227000000    -1.556000000    -0.134000000
O     4.967000000    -5.504000000    -0.898000000
H     4.820000000    -5.880000000    -0.030000000
H     5.379000000    -4.657000000    -0.725000000
O     1.144000000     1.224000000     5.451000000
H     2.067000000     0.974000000     5.494000000
H     0.762000000     0.621000000     4.812000000
O     0.249000000    -0.626000000     3.553000000
H    -0.493000000    -1.196000000     3.754000000
H     0.233000000    -0.539000000     2.600000000
O     3.548000000     5.083000000     3.584000000
H     4.158000000     4.702000000     4.216000000
H     2.681000000     4.864000000     3.926000000
O    -0.052000000    -5.641000000    -5.001000000
H     0.336000000    -6.034000000    -4.219000000
H    -0.488000000    -4.851000000    -4.680000000
O    -1.072000000    -3.657000000    -3.499000000
H    -1.991000000    -3.693000000    -3.764000000
H    -1.095000000    -3.717000000    -2.544000000
O    -2.502000000    -5.777000000     1.919000000
H    -1.880000000    -6.130000000     1.283000000
H    -3.358000000    -5.887000000     1.505000000
O     1.085000000    -2.137000000    -4.760000000
H     0.332000000    -2.232000000    -5.342000000
H     0.946000000    -2.794000000    -4.078000000
O    -3.680000000    -2.803000000     2.798000000
H    -4.106000000    -2.072000000     3.247000000
H    -2.782000000    -2.798000000     3.129000000
O     1.219000000    -8.792000000    -2.041000000
H     1.774000000    -8.914000000    -1.271000000
H     1.058000000    -7.849000000    -2.073000000
O     0.860000000     4.335000000     4.471000000
H     0.555000000     5.167000000     4.833000000
H     0.062000000     3.892000000     4.183000000
O     4.218000000     5.641000000     0.936000000
H     4.308000000     6.589000000     1.039000000
H     3.787000000     5.353000000     1.741000000
O    -0.387000000    -3.967000000     2.890000000
H    -0.826000000    -3.628000000     3.670000000
H    -1.026000000    -4.561000000     2.495000000
O     5.772000000    -1.817000000     3.182000000
H     6.426000000    -2.502000000     3.320000000
H     5.059000000    -2.257000000     2.719000000
O     4.539000000    -1.847000000    -3.652000000
H     4.166000000    -2.578000000    -3.160000000
H     4.492000000    -2.125000000    -4.566000000
O     5.439000000     2.739000000     3.655000000
H     6.127000000     2.134000000     3.380000000
H     4.892000000     2.851000000     2.878000000
O    -4.580000000    -6.977000000     0.637000000
H    -4.303000000    -6.641000000    -0.216000000
H    -5.524000000    -7.107000000     0.548000000
O    -4.470000000    -0.412000000     3.695000000
H    -4.532000000     0.203000000     4.426000000
H    -4.993000000    -0.012000000     3.000000000
O     0.508000000     5.620000000     1.278000000
H     0.656000000     5.474000000     0.343000000
H     1.098000000     5.005000000     1.713000000
O     4.324000000     2.069000000     0.968000000
H     4.356000000     1.257000000     0.462000000
H     4.012000000     2.726000000     0.345000000
O     1.087000000    -5.942000000    -2.106000000
H     1.119000000    -5.270000000    -1.426000000
H     1.976000000    -5.971000000    -2.458000000
O    -4.182000000     2.831000000     2.624000000
H    -3.923000000     2.454000000     3.464000000
H    -4.999000000     2.384000000     2.403000000
O    -4.042000000     2.804000000    -0.327000000
H    -4.192000000     2.076000000    -0.930000000
H    -4.422000000     2.511000000     0.501000000
O     2.892000000     0.471000000    -4.848000000
H     3.785000000     0.130000000    -4.806000000
H     2.353000000    -0.226000000    -4.473000000
O    -3.631000000    -1.208000000    -2.930000000
H    -4.375000000    -1.607000000    -3.381000000
H    -3.378000000    -1.852000000    -2.269000000
O     3.045000000    -6.362000000    -4.169000000
H     3.437000000    -5.504000000    -4.007000000
H     2.945000000    -6.404000000    -5.120000000
O    -3.610000000    -3.341000000    -1.156000000
H    -2.714000000    -3.411000000    -0.825000000
H    -4.161000000    -3.560000000    -0.405000000
O     1.279000000    -6.385000000     3.185000000
H     1.923000000    -7.074000000     3.023000000
H     1.378000000    -5.785000000     2.446000000
O     3.621000000     3.880000000    -1.103000000
H     3.878000000     4.568000000    -0.489000000
H     3.133000000     4.338000000    -1.787000000
O    -4.589000000    -5.761000000    -2.015000000
H    -4.117000000    -4.972000000    -1.747000000
H    -5.496000000    -5.473000000    -2.120000000
