144
-2792.83914
O     0.106000000     0.682000000    -6.091000000
H     0.895000000     0.752000000    -5.554000000
H     0.242000000    -0.109000000    -6.614000000
O    -0.637000000    -5.267000000     0.246000000
H     0.035000000    -5.155000000    -0.427000000
H    -0.246000000    -4.899000000     1.038000000
O    -1.217000000     2.284000000     6.055000000
H    -0.264000000     2.372000000     6.076000000
H    -1.372000000     1.475000000     5.567000000
O     3.168000000     3.887000000     5.363000000
H     2.750000000     4.714000000     5.122000000
H     2.591000000     3.512000000     6.028000000
O    -1.820000000    -5.309000000    -5.015000000
H    -2.565000000    -5.298000000    -5.616000000
H    -1.222000000    -4.648000000    -5.362000000
O     1.855000000     5.287000000    -1.979000000
H     1.857000000     4.333000000    -1.907000000
H     0.955000000     5.507000000    -2.221000000
O    -5.971000000     1.427000000    -2.809000000
H    -5.684000000     0.539000000    -3.021000000
H    -6.558000000     1.317000000    -2.061000000
O    -2.257000000     0.577000000    -4.576000000
H    -1.748000000     0.587000000    -5.387000000
H    -2.010000000    -0.243000000    -4.149000000
O     1.442000000     6.164000000     0.941000000
H     1.305000000     7.076000000     0.686000000
H     1.544000000     5.696000000     0.112000000
O     3.219000000    -1.939000000    -2.910000000
H     2.268000000    -1.895000000    -3.001000000
H     3.372000000    -2.701000000    -2.351000000
O    -1.303000000    -2.043000000     3.984000000
H    -1.132000000    -1.746000000     3.091000000
H    -2.100000000    -2.568000000     3.914000000
O    -2.325000000     2.969000000    -3.328000000
H    -3.079000000     3.073000000    -2.748000000
H    -2.388000000     2.067000000    -3.644000000
O    -3.261000000     6.199000000    -2.026000000
H    -3.616000000     5.368000000    -1.711000000
H    -3.993000000     6.616000000    -2.481000000
O    -4.209000000     1.013000000     5.325000000
H    -4.072000000     1.595000000     4.578000000
H    -3.374000000     1.024000000     5.794000000
O    -0.869000000     4.108000000    -5.144000000
H    -1.374000000     3.712000000    -4.434000000
H    -0.009000000     3.690000000    -5.089000000
O    -3.123000000    -3.389000000    -2.820000000
H    -3.033000000    -3.990000000    -3.559000000
H    -2.430000000    -2.741000000    -2.952000000
O     1.373000000    -1.844000000     4.355000000
H     1.891000000    -1.070000000     4.579000000
H     0.468000000    -1.532000000     4.346000000
O    -3.089000000    -2.323000000    -5.795000000
H    -3.806000000    -1.809000000    -5.421000000
H    -3.520000000    -3.080000000    -6.192000000
O     3.744000000    -3.747000000    -1.007000000
H     3.232000000    -4.104000000    -0.281000000
H     4.532000000    -3.394000000    -0.594000000
O    -4.359000000    -0.516000000     0.722000000
H    -3.794000000    -1.129000000     1.193000000
H    -3.764000000    -0.038000000     0.144000000
O    -4.715000000     1.085000000    -6.385000000
H    -4.169000000     0.754000000    -5.672000000
H    -4.098000000     1.504000000    -6.985000000
O    -0.377000000     6.954000000     3.072000000
H    -0.578000000     6.210000000     3.639000000
H     0.385000000     6.670000000     2.566000000
O    -1.278000000    -2.166000000     1.243000000
H    -1.840000000    -2.918000000     1.054000000
H    -0.671000000    -2.130000000     0.503000000
O     1.576000000     1.929000000     7.138000000
H     1.639000000     0.986000000     6.987000000
H     1.594000000     2.020000000     8.091000000
O     6.081000000    -2.593000000    -0.068000000
H     6.687000000    -3.307000000    -0.266000000
H     6.618000000    -1.802000000    -0.118000000
O     1.274000000    -6.825000000    -4.841000000
H     1.020000000    -6.431000000    -4.006000000
H     2.103000000    -6.401000000    -5.063000000
O    -0.313000000    -2.935000000    -5.534000000
H    -1.103000000    -2.509000000    -5.867000000
H    -0.106000000    -2.460000000    -4.729000000
O     0.240000000    -4.734000000     2.921000000
H     0.182000000    -3.900000000     3.387000000
H    -0.518000000    -5.232000000     3.226000000
O    -2.085000000     5.017000000     5.200000000
H    -1.929000000     4.191000000     4.743000000
H    -3.038000000     5.113000000     5.202000000
O     2.325000000    -4.158000000     4.952000000
H     3.193000000    -4.305000000     4.577000000
H     2.045000000    -3.318000000     4.589000000
O     1.361000000    -3.588000000    -7.671000000
H     1.163000000    -4.473000000    -7.977000000
H     0.804000000    -3.470000000    -6.902000000
O    -3.817000000     2.865000000     3.290000000
H    -3.865000000     2.985000000     2.342000000
H    -4.050000000     3.720000000     3.652000000
O     4.683000000     5.653000000     0.589000000
H     3.881000000     5.988000000     0.189000000
H     4.401000000     4.881000000     1.080000000
O    -4.328000000    -1.765000000     5.166000000
H    -4.039000000    -0.988000000     4.688000000
H    -5.278000000    -1.781000000     5.047000000
O     4.353000000    -1.923000000     1.869000000
H     4.913000000    -2.216000000     1.149000000
H     3.483000000    -1.844000000     1.478000000
O    -0.990000000    -0.529000000     6.160000000
H    -0.426000000    -0.836000000     6.870000000
H    -1.194000000    -1.319000000     5.659000000
O     4.115000000     3.326000000     2.368000000
H     4.691000000     2.608000000     2.633000000
H     3.747000000     3.652000000     3.189000000
O     0.921000000    -4.243000000    -1.748000000
H     0.441000000    -3.555000000    -2.209000000
H     1.842000000    -4.018000000    -1.873000000
O    -3.605000000     4.441000000     1.127000000
H    -4.304000000     5.046000000     0.878000000
H    -3.027000000     4.960000000     1.686000000
O    -4.197000000     3.322000000    -1.418000000
H    -4.981000000     2.899000000    -1.069000000
H    -3.826000000     3.792000000    -0.671000000
O     2.579000000     0.474000000    -4.840000000
H     3.363000000     0.490000000    -5.390000000
H     2.822000000    -0.072000000    -4.093000000
O    -5.214000000    -1.499000000    -4.323000000
H    -6.036000000    -1.982000000    -4.239000000
H    -4.673000000    -1.817000000    -3.600000000
O     3.227000000    -4.566000000    -4.534000000
H     3.821000000    -4.913000000    -3.868000000
H     3.191000000    -3.626000000    -4.356000000
O    -5.205000000    -2.892000000    -1.299000000
H    -5.134000000    -2.268000000    -0.577000000
H    -4.309000000    -2.987000000    -1.622000000
O     5.333000000    -1.684000000     4.240000000
H     4.778000000    -1.778000000     3.467000000
H     5.305000000    -2.542000000     4.662000000
O     5.624000000    -0.911000000    -3.137000000
H     5.895000000    -1.826000000    -3.056000000
H     4.691000000    -0.918000000    -2.926000000
O     3.506000000     0.258000000     4.905000000
H     4.318000000    -0.014000000     4.479000000
H     3.460000000     1.202000000     4.752000000
O     1.973000000     2.559000000    -1.521000000
H     1.479000000     2.543000000    -0.702000000
H     1.469000000     2.002000000    -2.115000000
