144
-2826.61547
O    -0.641000000    -6.263000000    -1.840000000
H     0.096000000    -5.709000000    -2.098000000
H    -0.372000000    -7.148000000    -2.084000000
O     0.947000000     0.912000000     5.070000000
H     1.614000000     0.797000000     5.747000000
H     1.151000000     0.242000000     4.417000000
O     0.437000000    -0.483000000    -7.765000000
H     0.906000000     0.180000000    -8.271000000
H     0.806000000    -0.417000000    -6.884000000
O     4.537000000     1.186000000     3.758000000
H     3.891000000     1.860000000     3.548000000
H     4.933000000     1.481000000     4.578000000
O     3.538000000     2.322000000    -2.520000000
H     4.264000000     1.802000000    -2.866000000
H     2.757000000     1.806000000    -2.721000000
O    -4.564000000     0.107000000    -2.953000000
H    -5.423000000     0.068000000    -2.532000000
H    -4.344000000    -0.808000000    -3.132000000
O     6.221000000     1.652000000     1.797000000
H     5.391000000     1.587000000     2.269000000
H     6.500000000     0.744000000     1.676000000
O    -0.675000000    -0.943000000    -5.017000000
H    -1.134000000    -1.559000000    -5.588000000
H    -0.315000000    -1.488000000    -4.317000000
O     1.638000000     3.857000000    -1.362000000
H     0.836000000     3.610000000    -1.823000000
H     2.290000000     3.222000000    -1.660000000
O     5.510000000    -2.916000000    -4.610000000
H     4.666000000    -2.465000000    -4.621000000
H     5.311000000    -3.791000000    -4.278000000
O    -1.408000000     4.769000000     4.915000000
H    -1.609000000     5.122000000     5.782000000
H    -1.421000000     5.532000000     4.337000000
O    -0.840000000     7.014000000     2.945000000
H     0.024000000     6.601000000     2.958000000
H    -0.794000000     7.641000000     2.223000000
O    -1.321000000    -4.096000000     2.025000000
H    -1.934000000    -4.128000000     1.290000000
H    -1.682000000    -3.428000000     2.608000000
O    -6.505000000     1.543000000     0.330000000
H    -5.864000000     1.299000000     0.997000000
H    -6.071000000     2.227000000    -0.180000000
O    -1.908000000     0.935000000    -3.634000000
H    -2.789000000     0.565000000    -3.580000000
H    -1.459000000     0.391000000    -4.281000000
O    -5.829000000    -3.774000000    -1.873000000
H    -5.948000000    -4.413000000    -2.576000000
H    -6.500000000    -4.000000000    -1.228000000
O    -1.706000000     0.788000000     5.415000000
H    -1.960000000     1.317000000     4.659000000
H    -0.751000000     0.842000000     5.436000000
O     2.818000000     0.107000000    -5.951000000
H     3.166000000    -0.547000000    -6.558000000
H     3.362000000     0.881000000    -6.095000000
O     5.325000000     0.888000000    -3.807000000
H     5.269000000    -0.067000000    -3.830000000
H     5.427000000     1.144000000    -4.724000000
O     1.385000000     1.070000000    -3.408000000
H     0.867000000     0.510000000    -2.829000000
H     1.405000000     0.599000000    -4.241000000
O    -2.490000000    -5.613000000    -3.707000000
H    -1.711000000    -5.718000000    -3.161000000
H    -2.515000000    -4.678000000    -3.911000000
O    -6.590000000    -1.035000000    -0.438000000
H    -6.659000000    -0.081000000    -0.462000000
H    -7.215000000    -1.337000000    -1.096000000
O    -1.843000000    -3.276000000    -6.380000000
H    -1.780000000    -3.276000000    -7.335000000
H    -2.780000000    -3.361000000    -6.202000000
O    -4.273000000    -2.955000000     0.921000000
H    -4.528000000    -2.161000000     0.451000000
H    -3.864000000    -3.507000000     0.254000000
O     1.292000000     5.796000000     0.579000000
H     1.675000000     5.898000000     1.450000000
H     1.643000000     4.965000000     0.258000000
O    -2.343000000    -4.385000000    -0.449000000
H    -2.111000000    -3.714000000    -1.090000000
H    -1.699000000    -5.080000000    -0.585000000
O     3.308000000     3.821000000     4.213000000
H     3.425000000     4.628000000     3.710000000
H     2.359000000     3.710000000     4.269000000
O     0.349000000    -5.046000000    -5.644000000
H    -0.279000000    -4.324000000    -5.662000000
H     0.699000000    -5.038000000    -4.753000000
O     0.523000000     3.605000000     6.096000000
H     0.606000000     2.664000000     5.941000000
H    -0.240000000     3.866000000     5.579000000
O    -1.124000000    -2.649000000     4.230000000
H    -1.009000000    -2.951000000     5.131000000
H    -0.305000000    -2.199000000     4.022000000
O    -4.881000000     0.742000000     2.717000000
H    -4.338000000     1.305000000     3.269000000
H    -4.840000000    -0.117000000     3.137000000
O     2.298000000     6.274000000     3.149000000
H     3.037000000     6.880000000     3.192000000
H     1.949000000     6.257000000     4.040000000
O    -2.840000000     2.665000000     3.657000000
H    -2.760000000     3.012000000     2.769000000
H    -2.375000000     3.297000000     4.204000000
O     5.004000000     4.844000000    -2.070000000
H     4.270000000     4.235000000    -2.152000000
H     5.726000000     4.308000000    -1.744000000
O     1.771000000    -1.505000000     3.957000000
H     1.818000000    -2.419000000     3.678000000
H     2.611000000    -1.130000000     3.693000000
O    -3.819000000    -1.797000000     3.633000000
H    -3.845000000    -2.419000000     2.907000000
H    -2.912000000    -1.820000000     3.937000000
O    -0.880000000     2.691000000    -1.656000000
H    -1.156000000     2.168000000    -2.409000000
H    -0.892000000     2.077000000    -0.922000000
O     6.533000000     3.178000000    -0.440000000
H     6.328000000     2.331000000    -0.835000000
H     6.340000000     3.062000000     0.490000000
O     1.403000000    -4.867000000    -3.046000000
H     1.168000000    -3.979000000    -2.777000000
H     2.264000000    -4.773000000    -3.455000000
O    -2.662000000     3.655000000     1.168000000
H    -2.245000000     4.260000000     0.554000000
H    -3.471000000     3.390000000     0.730000000
O    -3.593000000     2.022000000    -1.066000000
H    -2.760000000     2.403000000    -1.343000000
H    -3.605000000     1.154000000    -1.469000000
O    -4.007000000    -6.311000000    -5.610000000
H    -4.803000000    -5.848000000    -5.348000000
H    -3.401000000    -6.176000000    -4.881000000
O    -1.237000000     5.437000000    -0.545000000
H    -0.502000000     5.660000000     0.026000000
H    -0.892000000     4.757000000    -1.124000000
O    -3.816000000    -2.398000000    -3.149000000
H    -4.385000000    -2.992000000    -2.660000000
H    -2.928000000    -2.667000000    -2.912000000
O     2.740000000    -2.266000000    -4.239000000
H     1.869000000    -2.236000000    -3.842000000
H     2.911000000    -1.364000000    -4.511000000
O    -4.613000000    -6.528000000    -2.162000000
H    -4.318000000    -5.786000000    -2.688000000
H    -4.996000000    -6.130000000    -1.380000000
O    -6.878000000    -3.144000000     1.867000000
H    -7.570000000    -2.494000000     1.745000000
H    -6.097000000    -2.735000000     1.493000000
O     2.227000000     3.727000000    -4.958000000
H     2.507000000     3.622000000    -4.049000000
H     1.297000000     3.500000000    -4.950000000
