144
-2837.87371
O     2.453000000    -0.939000000    -6.379000000
H     1.674000000    -0.561000000    -5.972000000
H     2.476000000    -0.554000000    -7.255000000
O    -0.429000000    -6.070000000     0.097000000
H    -1.053000000    -5.347000000     0.165000000
H    -0.587000000    -6.596000000     0.881000000
O     0.277000000    -5.418000000     4.324000000
H     0.251000000    -4.700000000     4.957000000
H     1.152000000    -5.366000000     3.939000000
O    -2.448000000     2.838000000    -5.255000000
H    -3.178000000     2.939000000    -4.644000000
H    -1.844000000     2.242000000    -4.812000000
O     4.626000000     4.229000000    -2.127000000
H     4.020000000     4.663000000    -2.726000000
H     4.287000000     3.337000000    -2.047000000
O    -4.369000000     3.379000000    -7.258000000
H    -3.904000000     3.470000000    -8.090000000
H    -3.716000000     3.023000000    -6.656000000
O    -4.337000000     1.301000000     0.498000000
H    -3.456000000     1.050000000     0.222000000
H    -4.771000000     1.578000000    -0.309000000
O     0.511000000    -0.198000000    -4.857000000
H    -0.007000000     0.373000000    -4.289000000
H    -0.099000000    -0.884000000    -5.128000000
O     4.708000000    -2.365000000     4.038000000
H     4.013000000    -3.010000000     3.908000000
H     5.505000000    -2.887000000     4.128000000
O    -6.326000000     1.480000000    -2.418000000
H    -6.240000000     0.594000000    -2.770000000
H    -7.143000000     1.460000000    -1.918000000
O     1.602000000    -5.047000000    -1.101000000
H     1.124000000    -4.237000000    -1.278000000
H     0.974000000    -5.599000000    -0.636000000
O    -6.368000000    -1.227000000    -2.974000000
H    -6.764000000    -1.820000000    -3.613000000
H    -6.724000000    -1.510000000    -2.132000000
O    -4.692000000     1.843000000     3.335000000
H    -4.398000000     1.676000000     2.439000000
H    -4.874000000     0.974000000     3.692000000
O     3.079000000    -1.113000000    -2.953000000
H     2.621000000    -1.747000000    -3.506000000
H     3.957000000    -1.480000000    -2.846000000
O    -3.039000000    -4.632000000    -3.175000000
H    -3.221000000    -3.956000000    -2.523000000
H    -3.243000000    -5.455000000    -2.730000000
O     2.563000000     2.196000000     3.363000000
H     2.587000000     1.738000000     2.523000000
H     3.219000000     1.749000000     3.899000000
O    -1.559000000    -1.017000000     5.160000000
H    -0.663000000    -0.698000000     5.272000000
H    -1.519000000    -1.938000000     5.418000000
O     3.815000000    -3.899000000     1.243000000
H     3.023000000    -3.572000000     0.816000000
H     4.367000000    -3.124000000     1.350000000
O    -1.842000000    -1.462000000    -5.370000000
H    -2.577000000    -1.594000000    -4.771000000
H    -2.195000000    -1.678000000    -6.233000000
O     1.420000000    -0.196000000     5.816000000
H     0.965000000     0.573000000     5.474000000
H     2.315000000    -0.110000000     5.489000000
O     3.969000000     1.565000000    -2.061000000
H     3.450000000     0.761000000    -2.069000000
H     4.843000000     1.284000000    -1.791000000
O    -3.805000000    -1.531000000    -3.060000000
H    -3.462000000    -0.689000000    -2.761000000
H    -4.755000000    -1.421000000    -3.048000000
O     3.965000000     0.133000000     4.742000000
H     4.573000000     0.027000000     5.474000000
H     4.098000000    -0.648000000     4.206000000
O    -1.835000000    -3.613000000     2.918000000
H    -1.111000000    -3.778000000     3.523000000
H    -1.429000000    -3.623000000     2.051000000
O     2.803000000     5.055000000    -3.892000000
H     3.099000000     5.536000000    -4.665000000
H     1.857000000     5.196000000    -3.871000000
O     0.556000000    -2.732000000    -1.367000000
H    -0.375000000    -2.901000000    -1.223000000
H     0.610000000    -1.786000000    -1.502000000
O     4.851000000     0.302000000    -5.574000000
H     3.985000000    -0.034000000    -5.345000000
H     4.763000000     1.253000000    -5.513000000
O     3.008000000    -5.156000000     3.470000000
H     3.368000000    -4.813000000     2.653000000
H     3.683000000    -5.750000000     3.799000000
O     0.473000000     2.000000000     4.915000000
H     1.122000000     2.045000000     4.213000000
H    -0.343000000     2.288000000     4.506000000
O     1.561000000     2.904000000    -6.552000000
H     1.899000000     2.527000000    -5.740000000
H     1.353000000     2.147000000    -7.099000000
O    -0.938000000     1.651000000    -7.642000000
H    -1.855000000     1.579000000    -7.907000000
H    -0.974000000     1.855000000    -6.708000000
O    -2.268000000    -3.557000000    -0.518000000
H    -2.571000000    -2.651000000    -0.575000000
H    -3.071000000    -4.078000000    -0.509000000
O    -4.377000000     3.058000000    -3.283000000
H    -3.710000000     2.376000000    -3.207000000
H    -5.208000000     2.590000000    -3.210000000
O     0.855000000    -2.732000000     5.823000000
H     1.427000000    -3.203000000     6.429000000
H     1.239000000    -1.857000000     5.762000000
O    -4.959000000    -1.348000000     0.762000000
H    -4.931000000    -0.497000000     0.325000000
H    -4.513000000    -1.203000000     1.597000000
O    -1.273000000     6.189000000    -1.623000000
H    -0.693000000     5.494000000    -1.933000000
H    -2.145000000     5.794000000    -1.632000000
O    -3.549000000    -1.614000000     3.014000000
H    -2.839000000    -1.330000000     3.590000000
H    -3.365000000    -2.538000000     2.845000000
O     4.802000000     1.227000000     1.967000000
H     4.738000000     2.182000000     1.926000000
H     5.713000000     1.059000000     2.208000000
O     1.291000000     5.097000000     0.901000000
H     1.894000000     4.414000000     0.608000000
H     0.438000000     4.823000000     0.565000000
O     0.011000000     4.361000000    -3.086000000
H    -0.179000000     4.686000000    -3.966000000
H    -0.126000000     3.415000000    -3.145000000
O    -6.043000000    -0.501000000     4.171000000
H    -5.297000000    -0.951000000     3.774000000
H    -6.088000000    -0.852000000     5.061000000
O     3.555000000     2.369000000    -4.591000000
H     3.955000000     3.239000000    -4.565000000
H     3.573000000     2.070000000    -3.682000000
O     0.503000000     5.195000000    -5.660000000
H     0.621000000     4.472000000    -6.276000000
H     0.946000000     5.936000000    -6.072000000
O     5.278000000    -1.451000000     1.009000000
H     6.145000000    -1.447000000     1.416000000
H     5.010000000    -0.532000000     1.006000000
O     6.451000000     0.214000000    -1.250000000
H     7.191000000    -0.341000000    -1.002000000
H     6.015000000    -0.269000000    -1.952000000
O    -1.702000000     2.991000000     3.767000000
H    -2.211000000     3.613000000     4.287000000
H    -2.326000000     2.645000000     3.129000000
O    -3.987000000     5.334000000    -1.861000000
H    -3.991000000     4.539000000    -2.394000000
H    -4.177000000     6.039000000    -2.479000000
O     3.647000000     3.181000000     0.369000000
H     3.355000000     2.512000000    -0.251000000
H     4.176000000     3.781000000    -0.158000000
