144
-2793.68616
O     3.661000000    -0.714000000     5.929000000
H     3.149000000    -0.127000000     6.486000000
H     3.010000000    -1.289000000     5.526000000
O    -5.423000000     1.147000000    -1.653000000
H    -4.818000000     1.792000000    -1.285000000
H    -6.140000000     1.670000000    -2.013000000
O     5.788000000    -3.171000000    -1.498000000
H     6.698000000    -2.905000000    -1.366000000
H     5.344000000    -2.913000000    -0.691000000
O     4.384000000    -2.485000000     0.916000000
H     4.851000000    -3.290000000     1.141000000
H     3.501000000    -2.617000000     1.262000000
O     2.035000000    -6.734000000     3.575000000
H     1.629000000    -6.543000000     4.421000000
H     1.366000000    -6.504000000     2.930000000
O     6.174000000    -4.094000000     3.881000000
H     5.409000000    -4.293000000     3.342000000
H     5.841000000    -4.092000000     4.779000000
O     4.645000000    -0.042000000    -0.438000000
H     4.486000000    -0.851000000     0.049000000
H     5.088000000     0.531000000     0.187000000
O    -4.461000000     4.391000000     2.503000000
H    -4.942000000     4.928000000     1.873000000
H    -4.727000000     3.493000000     2.303000000
O    -1.812000000     4.064000000     4.013000000
H    -2.633000000     4.129000000     3.525000000
H    -1.165000000     3.799000000     3.359000000
O    -1.712000000     5.454000000    -1.384000000
H    -0.775000000     5.646000000    -1.353000000
H    -2.071000000     5.885000000    -0.608000000
O     2.605000000     6.761000000    -3.152000000
H     3.359000000     7.209000000    -3.536000000
H     2.731000000     5.840000000    -3.382000000
O    -4.420000000    -2.078000000    -3.414000000
H    -5.155000000    -1.641000000    -3.843000000
H    -4.321000000    -1.618000000    -2.580000000
O     0.141000000     4.099000000     1.906000000
H    -0.350000000     4.910000000     1.771000000
H     0.511000000     3.897000000     1.046000000
O     0.137000000    -5.336000000     1.952000000
H    -0.388000000    -5.259000000     1.156000000
H     0.593000000    -4.497000000     2.020000000
O    -3.130000000    -0.970000000     4.678000000
H    -3.503000000    -1.798000000     4.981000000
H    -3.733000000    -0.670000000     3.997000000
O     2.689000000    -3.107000000    -3.152000000
H     3.512000000    -2.969000000    -3.620000000
H     2.785000000    -3.970000000    -2.749000000
O    -2.493000000    -3.377000000     2.485000000
H    -2.941000000    -3.380000000     3.331000000
H    -1.615000000    -3.048000000     2.680000000
O     3.527000000    -4.722000000     2.663000000
H     2.906000000    -4.029000000     2.437000000
H     3.014000000    -5.345000000     3.177000000
O    -3.780000000    -3.520000000    -0.002000000
H    -3.225000000    -3.545000000     0.778000000
H    -4.268000000    -4.343000000     0.024000000
O     1.020000000     0.852000000     4.331000000
H     1.452000000     1.639000000     4.663000000
H     0.684000000     1.108000000     3.472000000
O    -3.993000000    -0.849000000    -0.898000000
H    -4.466000000    -1.070000000    -0.095000000
H    -4.539000000    -0.186000000    -1.322000000
O    -0.070000000    -3.998000000    -0.884000000
H     0.816000000    -4.018000000    -1.248000000
H    -0.557000000    -3.420000000    -1.471000000
O     1.290000000    -1.870000000    -4.851000000
H     1.806000000    -1.105000000    -5.103000000
H     1.677000000    -2.158000000    -4.024000000
O    -4.927000000     3.134000000    -4.423000000
H    -4.594000000     3.384000000    -3.561000000
H    -5.349000000     2.286000000    -4.280000000
O     1.205000000    -2.569000000     8.022000000
H     0.305000000    -2.894000000     8.027000000
H     1.375000000    -2.349000000     7.106000000
O     4.498000000    -7.879000000     1.467000000
H     3.765000000    -7.270000000     1.552000000
H     4.602000000    -7.998000000     0.522000000
O    -3.839000000     3.810000000    -2.000000000
H    -4.369000000     4.354000000    -1.418000000
H    -2.950000000     4.150000000    -1.903000000
O     1.103000000    -1.532000000     5.392000000
H     1.143000000    -0.584000000     5.269000000
H     0.676000000    -1.859000000     4.600000000
O     0.143000000     1.001000000    -7.325000000
H    -0.296000000     1.714000000    -6.860000000
H     0.882000000     1.422000000    -7.764000000
O    -1.559000000     3.091000000    -6.230000000
H    -1.882000000     3.669000000    -5.538000000
H    -1.139000000     3.680000000    -6.857000000
O     1.988000000    -5.045000000     6.041000000
H     1.429000000    -4.596000000     5.407000000
H     1.436000000    -5.742000000     6.396000000
O     0.821000000     8.025000000    -1.264000000
H     1.300000000     7.391000000    -1.797000000
H     1.493000000     8.628000000    -0.946000000
O    -1.301000000    -0.683000000    -4.462000000
H    -0.425000000    -0.792000000    -4.834000000
H    -1.231000000    -1.040000000    -3.577000000
O     3.349000000    -0.083000000    -5.351000000
H     3.729000000     0.751000000    -5.073000000
H     3.885000000    -0.354000000    -6.096000000
O     5.881000000     2.739000000    -3.119000000
H     5.627000000     2.689000000    -4.041000000
H     5.056000000     2.664000000    -2.639000000
O    -5.398000000     1.867000000     2.499000000
H    -4.608000000     1.330000000     2.561000000
H    -5.926000000     1.440000000     1.825000000
O    -2.838000000     0.498000000    -6.390000000
H    -2.421000000    -0.206000000    -5.893000000
H    -2.709000000     1.280000000    -5.853000000
O    -5.034000000    -1.092000000     2.133000000
H    -4.595000000    -1.910000000     2.364000000
H    -5.960000000    -1.259000000     2.309000000
O    -1.724000000    -2.258000000    -2.320000000
H    -2.466000000    -2.292000000    -2.924000000
H    -2.089000000    -1.894000000    -1.514000000
O    -4.584000000    -3.205000000     4.265000000
H    -4.621000000    -3.638000000     5.118000000
H    -5.118000000    -3.757000000     3.694000000
O    -1.564000000     0.374000000     6.319000000
H    -1.007000000     0.928000000     5.772000000
H    -2.100000000    -0.116000000     5.695000000
O     2.279000000    -5.716000000    -2.399000000
H     2.573000000    -6.619000000    -2.277000000
H     1.347000000    -5.792000000    -2.600000000
O     3.040000000     4.269000000    -3.878000000
H     2.410000000     3.701000000    -4.322000000
H     3.392000000     3.730000000    -3.170000000
O     3.444000000     2.090000000    -1.931000000
H     3.066000000     2.425000000    -1.117000000
H     3.767000000     1.218000000    -1.704000000
O     2.214000000     2.185000000     0.684000000
H     3.043000000     2.028000000     1.136000000
H     1.740000000     1.357000000     0.759000000
O    -0.442000000    -4.994000000     4.708000000
H    -0.025000000    -4.806000000     3.867000000
H    -1.094000000    -5.666000000     4.507000000
O    -1.337000000    -2.902000000     6.920000000
H    -1.660000000    -2.984000000     6.023000000
H    -1.040000000    -1.994000000     6.985000000
O    -0.801000000    -4.047000000    -3.948000000
H    -1.221000000    -3.378000000    -3.408000000
H    -0.075000000    -3.591000000    -4.374000000
