144
-2830.16853
O     1.342000000    -4.848000000    -4.789000000
H     1.441000000    -4.532000000    -5.688000000
H     2.033000000    -5.502000000    -4.688000000
O    -2.430000000    -4.554000000    -0.006000000
H    -3.180000000    -4.835000000     0.519000000
H    -2.812000000    -4.022000000    -0.704000000
O     1.772000000     5.541000000     4.638000000
H     1.700000000     4.691000000     5.072000000
H     2.702000000     5.625000000     4.428000000
O     2.194000000     3.375000000     5.782000000
H     3.037000000     2.998000000     5.532000000
H     2.214000000     3.396000000     6.738000000
O     5.472000000    -0.896000000     4.785000000
H     5.668000000    -0.465000000     3.953000000
H     4.703000000    -1.435000000     4.600000000
O    -0.982000000    -3.743000000     3.825000000
H    -1.620000000    -4.456000000     3.795000000
H    -1.233000000    -3.167000000     3.103000000
O    -0.298000000     2.944000000     5.198000000
H    -0.779000000     3.221000000     5.978000000
H     0.614000000     3.166000000     5.388000000
O    -4.009000000    -2.072000000    -4.352000000
H    -3.129000000    -1.760000000    -4.139000000
H    -3.870000000    -2.941000000    -4.728000000
O     0.511000000    -2.309000000    -7.793000000
H     0.665000000    -1.376000000    -7.943000000
H    -0.040000000    -2.338000000    -7.011000000
O    -1.856000000     3.665000000     0.686000000
H    -1.698000000     2.833000000     1.131000000
H    -1.077000000     3.800000000     0.145000000
O     1.677000000    -0.211000000    -5.583000000
H     0.966000000    -0.077000000    -6.209000000
H     1.246000000    -0.554000000    -4.800000000
O    -2.780000000     1.943000000     4.709000000
H    -2.993000000     1.996000000     5.641000000
H    -1.909000000     2.335000000     4.640000000
O     4.008000000    -0.864000000    -7.284000000
H     4.315000000    -1.708000000    -6.953000000
H     3.349000000    -0.583000000    -6.650000000
O    -4.288000000    -0.056000000    -7.936000000
H    -4.489000000     0.818000000    -8.268000000
H    -3.654000000     0.094000000    -7.234000000
O    -2.632000000    -2.080000000     5.988000000
H    -2.047000000    -2.806000000     6.205000000
H    -3.232000000    -2.442000000     5.336000000
O    -3.805000000    -2.291000000    -1.343000000
H    -4.703000000    -2.484000000    -1.612000000
H    -3.465000000    -1.722000000    -2.034000000
O    -1.678000000    -2.454000000     1.565000000
H    -1.925000000    -3.134000000     0.938000000
H    -1.555000000    -1.670000000     1.030000000
O     6.225000000    -0.068000000     2.273000000
H     5.914000000    -0.752000000     1.680000000
H     6.234000000     0.726000000     1.739000000
O     0.504000000     3.477000000    -0.872000000
H    -0.017000000     3.476000000    -1.675000000
H     1.276000000     2.954000000    -1.088000000
O     3.564000000     3.372000000     2.374000000
H     3.105000000     2.670000000     2.836000000
H     2.905000000     4.058000000     2.266000000
O    -1.269000000     2.799000000    -2.950000000
H    -1.471000000     1.876000000    -2.801000000
H    -1.206000000     2.880000000    -3.902000000
O     5.294000000    -2.304000000     1.169000000
H     4.354000000    -2.447000000     1.063000000
H     5.646000000    -3.169000000     1.381000000
O    -6.166000000     0.710000000    -1.903000000
H    -6.606000000    -0.124000000    -1.744000000
H    -6.025000000     1.078000000    -1.031000000
O    -0.685000000     2.417000000    -5.713000000
H    -0.481000000     3.296000000    -6.035000000
H    -0.008000000     1.859000000    -6.096000000
O     5.963000000     2.407000000     1.095000000
H     5.123000000     2.864000000     1.145000000
H     6.531000000     2.882000000     1.701000000
O    -4.129000000     0.717000000    -3.729000000
H    -4.642000000     0.768000000    -2.923000000
H    -4.300000000    -0.162000000    -4.067000000
O     3.131000000     2.801000000    -1.514000000
H     4.029000000     2.490000000    -1.630000000
H     3.226000000     3.658000000    -1.099000000
O    -4.797000000     2.502000000     2.595000000
H    -4.251000000     1.958000000     3.162000000
H    -4.592000000     3.400000000     2.854000000
O    -3.441000000    -4.322000000    -5.767000000
H    -3.118000000    -4.179000000    -6.657000000
H    -2.765000000    -4.858000000    -5.351000000
O     3.209000000     2.944000000    -4.752000000
H     3.353000000     2.058000000    -4.419000000
H     2.587000000     2.831000000    -5.470000000
O    -1.314000000     0.177000000     6.829000000
H    -1.759000000     0.668000000     6.138000000
H    -1.654000000    -0.714000000     6.747000000
O     4.095000000     0.430000000    -3.879000000
H     3.465000000    -0.117000000    -4.348000000
H     4.511000000    -0.165000000    -3.255000000
O     1.707000000    -4.025000000    -0.565000000
H     1.886000000    -4.919000000    -0.856000000
H     1.458000000    -3.559000000    -1.363000000
O    -0.820000000     5.520000000     3.808000000
H    -0.118000000     6.004000000     4.242000000
H    -0.630000000     4.601000000     3.995000000
O     4.261000000     1.276000000     6.207000000
H     4.836000000     0.515000000     6.291000000
H     3.380000000     0.906000000     6.151000000
O     1.410000000     4.970000000     1.243000000
H     1.227000000     4.326000000     0.558000000
H     0.550000000     5.313000000     1.484000000
O     2.573000000    -2.467000000     1.337000000
H     2.216000000    -1.578000000     1.351000000
H     2.157000000    -2.880000000     0.580000000
O    -3.491000000     3.708000000    -1.414000000
H    -2.844000000     3.143000000    -1.834000000
H    -3.194000000     3.781000000    -0.507000000
O     1.656000000    -0.114000000     6.196000000
H     0.743000000     0.101000000     6.387000000
H     1.632000000    -1.027000000     5.910000000
O     0.820000000    -2.551000000     5.373000000
H     0.061000000    -2.859000000     4.877000000
H     1.147000000    -3.332000000     5.819000000
O     1.951000000    -2.844000000    -3.112000000
H     1.840000000    -3.591000000    -3.701000000
H     1.185000000    -2.294000000    -3.275000000
O    -2.642000000     0.708000000    -5.853000000
H    -1.899000000     1.312000000    -5.863000000
H    -2.990000000     0.771000000    -4.964000000
O     0.324000000     0.694000000    -7.742000000
H    -0.153000000     0.780000000    -8.568000000
H     1.016000000     1.353000000    -7.796000000
O     5.029000000    -3.042000000    -2.920000000
H     4.128000000    -3.169000000    -2.621000000
H     4.984000000    -3.157000000    -3.869000000
O     3.485000000    -2.387000000     3.962000000
H     3.558000000    -2.379000000     3.007000000
H     2.548000000    -2.488000000     4.129000000
O    -1.375000000    -5.739000000    -4.089000000
H    -1.220000000    -6.534000000    -4.600000000
H    -0.617000000    -5.184000000    -4.274000000
O    -1.145000000    -1.698000000    -5.901000000
H    -1.863000000    -1.086000000    -6.065000000
H    -0.911000000    -1.551000000    -4.984000000
O    -4.779000000    -2.359000000     1.227000000
H    -5.387000000    -2.205000000     0.505000000
H    -3.941000000    -2.021000000     0.911000000
