144
-2833.66067
O     1.122000000    -3.701000000    -5.099000000
H     1.982000000    -3.333000000    -5.303000000
H     0.886000000    -3.305000000    -4.260000000
O    -0.255000000    -4.039000000    -0.388000000
H    -0.337000000    -4.960000000    -0.634000000
H    -0.935000000    -3.594000000    -0.894000000
O    -1.733000000     2.529000000    -5.596000000
H    -2.347000000     3.168000000    -5.234000000
H    -1.304000000     2.148000000    -4.829000000
O    -5.395000000     1.674000000    -5.000000000
H    -4.974000000     0.977000000    -5.503000000
H    -5.728000000     1.237000000    -4.216000000
O     3.109000000     3.774000000    -2.370000000
H     2.550000000     3.178000000    -2.869000000
H     3.748000000     3.204000000    -1.944000000
O    -3.912000000    -0.914000000     5.363000000
H    -4.817000000    -0.820000000     5.662000000
H    -3.780000000    -1.859000000     5.294000000
O    -4.767000000     1.984000000    -1.516000000
H    -4.674000000     1.874000000    -0.569000000
H    -3.939000000     1.666000000    -1.876000000
O     0.522000000    -0.004000000    -4.963000000
H     0.155000000     0.589000000    -4.307000000
H     0.442000000    -0.874000000    -4.572000000
O     3.946000000    -3.513000000     1.501000000
H     4.594000000    -4.215000000     1.438000000
H     3.541000000    -3.636000000     2.360000000
O     2.595000000    -3.238000000    -1.021000000
H     3.048000000    -3.439000000    -0.202000000
H     1.693000000    -3.520000000    -0.870000000
O    -0.439000000    -5.161000000     6.815000000
H    -0.541000000    -4.319000000     6.371000000
H    -1.320000000    -5.536000000     6.821000000
O    -5.261000000     2.240000000     2.623000000
H    -4.309000000     2.251000000     2.523000000
H    -5.404000000     2.327000000     3.565000000
O     2.682000000    -0.104000000    -6.548000000
H     1.802000000     0.039000000    -6.200000000
H     3.025000000    -0.837000000    -6.038000000
O     3.310000000     2.818000000     3.575000000
H     3.929000000     3.037000000     4.271000000
H     2.891000000     3.650000000     3.356000000
O    -4.798000000    -0.573000000     2.782000000
H    -5.310000000     0.232000000     2.853000000
H    -4.665000000    -0.853000000     3.688000000
O     3.585000000    -1.163000000    -2.590000000
H     3.110000000    -1.950000000    -2.322000000
H     4.034000000    -0.873000000    -1.796000000
O    -1.904000000    -2.280000000    -5.311000000
H    -2.459000000    -1.651000000    -4.850000000
H    -1.431000000    -1.754000000    -5.955000000
O     4.946000000     2.092000000    -1.015000000
H     5.700000000     1.604000000    -1.347000000
H     4.723000000     1.657000000    -0.192000000
O     1.537000000    -0.004000000     6.305000000
H     1.431000000     0.328000000     5.414000000
H     2.414000000     0.279000000     6.564000000
O     2.577000000     2.079000000    -4.293000000
H     1.745000000     1.618000000    -4.402000000
H     3.243000000     1.428000000    -4.512000000
O    -3.525000000    -0.883000000    -3.109000000
H    -3.013000000    -0.160000000    -2.747000000
H    -4.410000000    -0.530000000    -3.197000000
O    -1.121000000    -4.320000000     2.183000000
H    -0.699000000    -5.177000000     2.244000000
H    -0.723000000    -3.911000000     1.414000000
O     0.398000000    -2.071000000    -2.942000000
H    -0.482000000    -2.411000000    -2.778000000
H     0.605000000    -1.557000000    -2.162000000
O     2.927000000    -4.534000000     3.786000000
H     2.638000000    -3.866000000     4.408000000
H     3.484000000    -5.117000000     4.301000000
O     0.976000000     1.219000000     4.113000000
H     1.737000000     1.696000000     3.782000000
H     0.223000000     1.691000000     3.756000000
O    -6.300000000     4.270000000    -2.389000000
H    -6.965000000     3.942000000    -1.784000000
H    -5.768000000     3.502000000    -2.599000000
O     2.131000000    -6.836000000     2.309000000
H     2.892000000    -6.937000000     1.737000000
H     2.155000000    -5.919000000     2.580000000
O    -2.735000000    -3.102000000     4.140000000
H    -3.127000000    -3.858000000     4.578000000
H    -2.250000000    -3.477000000     3.405000000
O     2.312000000    -3.518000000     6.330000000
H     1.778000000    -3.235000000     7.072000000
H     3.086000000    -2.955000000     6.364000000
O    -0.023000000     4.428000000    -7.090000000
H    -0.273000000     3.665000000    -6.570000000
H     0.219000000     5.091000000    -6.442000000
O    -2.117000000    -0.003000000    -7.143000000
H    -3.026000000    -0.257000000    -7.304000000
H    -2.179000000     0.749000000    -6.555000000
O    -2.110000000    -2.889000000    -1.992000000
H    -2.543000000    -3.202000000    -1.197000000
H    -2.700000000    -2.219000000    -2.338000000
O    -2.826000000     2.954000000     2.173000000
H    -2.673000000     3.674000000     1.561000000
H    -2.028000000     2.913000000     2.699000000
O     3.974000000    -2.248000000    -4.920000000
H     4.845000000    -2.645000000    -4.921000000
H     3.921000000    -1.789000000    -4.082000000
O    -6.289000000    -0.679000000    -3.445000000
H    -6.805000000    -0.605000000    -2.642000000
H    -6.191000000    -1.622000000    -3.580000000
O    -3.707000000     3.885000000    -3.960000000
H    -3.371000000     3.433000000    -3.186000000
H    -4.155000000     3.202000000    -4.460000000
O    -0.446000000    -2.413000000     6.168000000
H     0.139000000    -1.664000000     6.052000000
H    -1.137000000    -2.280000000     5.519000000
O    -5.587000000    -1.764000000     0.350000000
H    -5.167000000    -1.210000000     1.009000000
H    -4.860000000    -2.121000000    -0.160000000
O    -1.682000000     6.519000000    -2.179000000
H    -1.043000000     5.841000000    -2.395000000
H    -2.482000000     6.037000000    -1.968000000
O    -2.761000000    -2.008000000     0.717000000
H    -2.470000000    -1.132000000     0.973000000
H    -2.578000000    -2.554000000     1.481000000
O     4.034000000     1.339000000     1.362000000
H     4.520000000     1.852000000     2.008000000
H     3.254000000     1.863000000     1.179000000
O     0.050000000     4.537000000    -2.615000000
H     0.548000000     4.876000000    -3.359000000
H    -0.380000000     3.751000000    -2.952000000
O     1.302000000     5.781000000    -4.647000000
H     2.200000000     5.539000000    -4.873000000
H     1.129000000     6.569000000    -5.161000000
O     4.857000000    -1.180000000     0.290000000
H     4.449000000    -1.980000000     0.623000000
H     4.404000000    -0.472000000     0.747000000
O     7.528000000    -2.027000000     0.036000000
H     7.549000000    -2.028000000    -0.921000000
H     6.639000000    -1.748000000     0.255000000
O    -0.321000000     3.691000000     3.632000000
H     0.002000000     4.143000000     4.412000000
H    -0.176000000     4.312000000     2.918000000
O    -3.786000000     5.228000000    -1.308000000
H    -4.633000000     5.025000000    -1.704000000
H    -3.900000000     5.023000000    -0.380000000
O     1.622000000     3.448000000     0.069000000
H     1.815000000     3.670000000    -0.842000000
H     1.127000000     2.630000000     0.016000000
