144
-2838.91802
O    -0.502000000    -4.274000000     2.658000000
H    -0.317000000    -4.772000000     1.862000000
H    -0.978000000    -3.502000000     2.351000000
O     1.743000000     5.069000000     3.254000000
H     0.958000000     4.737000000     3.691000000
H     1.738000000     4.643000000     2.397000000
O     3.269000000    -3.538000000     6.527000000
H     2.890000000    -3.564000000     5.648000000
H     3.748000000    -2.710000000     6.557000000
O    -2.108000000    -3.304000000    -1.513000000
H    -1.351000000    -3.199000000    -2.090000000
H    -2.580000000    -4.056000000    -1.871000000
O    -4.689000000     1.828000000     5.835000000
H    -4.331000000     1.869000000     4.949000000
H    -5.638000000     1.850000000     5.712000000
O     2.030000000    -1.455000000    -5.393000000
H     1.350000000    -1.475000000    -4.720000000
H     2.756000000    -0.982000000    -4.988000000
O    -2.617000000     4.879000000     1.325000000
H    -3.442000000     5.185000000     0.946000000
H    -2.763000000     4.910000000     2.270000000
O     4.041000000    -2.358000000    -1.888000000
H     4.224000000    -2.992000000    -2.581000000
H     4.521000000    -2.689000000    -1.129000000
O    -2.565000000    -4.216000000    -6.408000000
H    -2.376000000    -3.296000000    -6.224000000
H    -3.239000000    -4.191000000    -7.087000000
O     0.832000000     2.912000000    -0.859000000
H     0.147000000     3.526000000    -1.124000000
H     0.358000000     2.121000000    -0.602000000
O    -1.995000000    -0.324000000     4.838000000
H    -2.083000000    -1.197000000     4.455000000
H    -2.540000000     0.236000000     4.286000000
O    -1.851000000    -2.394000000     1.277000000
H    -1.856000000    -3.029000000     0.561000000
H    -1.310000000    -1.674000000     0.955000000
O    -4.204000000    -0.974000000     1.662000000
H    -3.442000000    -1.507000000     1.437000000
H    -4.564000000    -0.701000000     0.818000000
O     4.184000000     2.026000000     1.322000000
H     4.204000000     1.073000000     1.238000000
H     3.918000000     2.337000000     0.456000000
O     0.778000000    -3.477000000     4.945000000
H     0.300000000    -3.637000000     4.131000000
H     0.994000000    -2.545000000     4.916000000
O     0.669000000    -3.588000000    -6.330000000
H     1.256000000    -2.998000000    -5.858000000
H    -0.081000000    -3.041000000    -6.566000000
O    -3.233000000     2.246000000    -4.534000000
H    -2.593000000     1.535000000    -4.518000000
H    -2.705000000     3.043000000    -4.573000000
O     4.519000000    -0.831000000     1.870000000
H     3.878000000    -1.446000000     2.226000000
H     4.821000000    -1.241000000     1.060000000
O    -5.612000000     0.611000000    -1.377000000
H    -4.972000000     0.186000000    -1.948000000
H    -6.453000000     0.469000000    -1.812000000
O    -2.493000000    -0.039000000    -8.048000000
H    -1.950000000    -0.016000000    -8.836000000
H    -2.709000000     0.878000000    -7.880000000
O     3.534000000     2.235000000    -1.436000000
H     3.866000000     3.121000000    -1.584000000
H     2.609000000     2.358000000    -1.222000000
O    -1.585000000     3.421000000     7.275000000
H    -1.123000000     2.583000000     7.290000000
H    -2.490000000     3.199000000     7.492000000
O    -0.258000000     5.586000000    -0.711000000
H    -0.690000000     6.297000000    -1.185000000
H    -0.935000000     5.241000000    -0.129000000
O    -0.908000000     3.755000000    -4.593000000
H    -0.426000000     4.507000000    -4.249000000
H    -0.306000000     3.018000000    -4.490000000
O    -2.223000000    -5.130000000    -3.641000000
H    -2.674000000    -5.971000000    -3.707000000
H    -2.278000000    -4.758000000    -4.521000000
O    -3.717000000    -0.641000000     6.974000000
H    -2.855000000    -0.489000000     6.587000000
H    -4.163000000     0.203000000     6.902000000
O     0.811000000     1.430000000    -4.600000000
H     0.074000000     0.849000000    -4.412000000
H     1.543000000     1.056000000    -4.110000000
O     3.215000000    -3.301000000     3.249000000
H     2.527000000    -3.890000000     3.558000000
H     3.996000000    -3.572000000     3.731000000
O     3.537000000    -5.028000000     0.985000000
H     3.980000000    -4.230000000     1.272000000
H     2.839000000    -4.721000000     0.407000000
O    -5.863000000     1.547000000    -4.221000000
H    -4.928000000     1.751000000    -4.219000000
H    -6.045000000     1.269000000    -5.119000000
O    -3.941000000    -1.380000000    -2.694000000
H    -3.529000000    -1.999000000    -2.091000000
H    -3.210000000    -0.896000000    -3.078000000
O     4.365000000     2.258000000     3.976000000
H     4.271000000     2.215000000     3.025000000
H     3.491000000     2.481000000     4.294000000
O    -0.021000000    -5.838000000     0.390000000
H     0.453000000    -6.664000000     0.297000000
H     0.553000000    -5.186000000    -0.012000000
O    -5.810000000     2.217000000     0.827000000
H    -5.806000000     1.456000000     0.246000000
H    -5.603000000     2.956000000     0.255000000
O     1.842000000     2.915000000     5.797000000
H     1.128000000     2.279000000     5.855000000
H     1.408000000     3.745000000     5.601000000
O     1.597000000    -1.044000000     6.522000000
H     2.378000000    -0.731000000     6.066000000
H     1.926000000    -1.695000000     7.141000000
O     2.021000000     0.879000000    -6.940000000
H     1.441000000     1.423000000    -6.408000000
H     1.948000000     0.004000000    -6.557000000
O     1.751000000    -3.904000000    -0.972000000
H     2.413000000    -3.286000000    -1.280000000
H     1.185000000    -4.047000000    -1.730000000
O    -4.802000000    -1.681000000    -6.918000000
H    -4.910000000    -2.064000000    -7.789000000
H    -4.141000000    -0.999000000    -7.037000000
O     3.184000000     0.079000000    -3.370000000
H     3.410000000    -0.746000000    -2.940000000
H     3.272000000     0.739000000    -2.683000000
O     5.662000000    -2.632000000     0.189000000
H     6.146000000    -2.389000000     0.978000000
H     6.226000000    -3.267000000    -0.252000000
O    -0.359000000     0.923000000     6.660000000
H    -0.952000000     0.558000000     6.004000000
H     0.331000000     0.266000000     6.751000000
O     3.576000000    -0.112000000     5.388000000
H     3.950000000     0.498000000     4.753000000
H     4.274000000    -0.746000000     5.552000000
O    -0.539000000     4.597000000     4.604000000
H    -1.118000000     4.239000000     5.277000000
H    -1.090000000     5.209000000     4.116000000
O    -1.290000000    -1.732000000    -6.124000000
H    -1.685000000    -0.983000000    -6.570000000
H    -0.926000000    -1.366000000    -5.318000000
O    -5.694000000    -2.158000000    -4.438000000
H    -5.447000000    -1.869000000    -5.316000000
H    -5.006000000    -1.811000000    -3.870000000
O    -3.747000000     1.163000000     3.157000000
H    -4.058000000     1.874000000     2.596000000
H    -4.179000000     0.381000000     2.814000000
O     0.708000000    -4.858000000    -3.313000000
H     0.270000000    -5.597000000    -2.890000000
H     0.052000000    -4.500000000    -3.910000000
