144
-2826.94502
O    -3.875000000    -0.652000000    -6.618000000
H    -4.521000000    -0.879000000    -7.287000000
H    -4.235000000     0.125000000    -6.191000000
O     4.120000000    -3.501000000    -6.060000000
H     3.384000000    -2.892000000    -6.007000000
H     3.718000000    -4.368000000    -6.013000000
O    -1.107000000     2.136000000     6.493000000
H    -0.350000000     1.653000000     6.826000000
H    -0.764000000     3.006000000     6.288000000
O     1.208000000    -3.113000000    -7.519000000
H     0.298000000    -3.372000000    -7.662000000
H     1.167000000    -2.169000000    -7.366000000
O     5.375000000    -2.131000000    -0.022000000
H     5.266000000    -2.668000000     0.762000000
H     5.067000000    -2.686000000    -0.738000000
O    -2.123000000    -1.985000000    -5.018000000
H    -2.601000000    -1.471000000    -5.668000000
H    -1.420000000    -1.405000000    -4.724000000
O    -3.271000000    -0.511000000     5.999000000
H    -2.551000000     0.118000000     5.967000000
H    -3.201000000    -0.998000000     5.178000000
O     3.132000000    -0.826000000     7.052000000
H     2.920000000    -1.197000000     6.195000000
H     3.541000000    -1.548000000     7.530000000
O     1.236000000     3.524000000    -5.374000000
H     1.835000000     3.556000000    -6.120000000
H     0.586000000     2.865000000    -5.616000000
O     3.126000000    -1.805000000     4.157000000
H     3.778000000    -2.497000000     4.050000000
H     2.614000000    -1.830000000     3.349000000
O    -4.394000000    -2.643000000    -1.690000000
H    -4.696000000    -1.735000000    -1.687000000
H    -4.210000000    -2.831000000    -2.611000000
O     4.366000000     0.405000000     0.663000000
H     4.870000000    -0.259000000     0.192000000
H     4.375000000     1.168000000     0.085000000
O    -4.613000000    -0.024000000     2.350000000
H    -4.526000000     0.428000000     1.511000000
H    -4.522000000     0.667000000     3.006000000
O    -5.254000000     0.685000000    -2.126000000
H    -5.763000000     0.307000000    -2.843000000
H    -4.344000000     0.610000000    -2.413000000
O     4.805000000     2.318000000    -1.081000000
H     4.533000000     3.197000000    -0.817000000
H     4.192000000     2.076000000    -1.775000000
O    -4.341000000    -3.117000000    -4.370000000
H    -4.919000000    -3.089000000    -5.133000000
H    -3.529000000    -2.710000000    -4.670000000
O    -2.651000000     1.420000000    -3.028000000
H    -1.810000000     0.996000000    -3.198000000
H    -2.433000000     2.173000000    -2.479000000
O    -2.136000000    -5.449000000     2.416000000
H    -2.636000000    -4.965000000     1.759000000
H    -1.236000000    -5.437000000     2.090000000
O     1.259000000     4.887000000     2.568000000
H     1.086000000     4.294000000     1.837000000
H     2.130000000     5.242000000     2.388000000
O    -3.701000000    -4.152000000     0.420000000
H    -4.636000000    -4.206000000     0.618000000
H    -3.655000000    -3.629000000    -0.381000000
O    -1.270000000    -4.424000000    -4.573000000
H    -1.615000000    -3.558000000    -4.790000000
H    -2.038000000    -4.995000000    -4.576000000
O     1.723000000    -3.074000000    -3.743000000
H     0.841000000    -3.013000000    -4.111000000
H     2.014000000    -2.166000000    -3.665000000
O    -3.624000000     5.120000000     0.439000000
H    -3.018000000     4.565000000     0.930000000
H    -3.176000000     5.964000000     0.373000000
O     5.087000000     0.053000000     3.832000000
H     4.614000000    -0.629000000     4.308000000
H     4.709000000     0.039000000     2.953000000
O     0.025000000    -4.146000000     1.296000000
H    -0.408000000    -4.093000000     0.444000000
H     0.324000000    -3.253000000     1.468000000
O    -7.032000000    -1.197000000     2.709000000
H    -7.078000000    -1.564000000     3.592000000
H    -6.107000000    -0.987000000     2.584000000
O    -2.066000000     3.299000000     1.727000000
H    -1.392000000     2.714000000     1.380000000
H    -1.768000000     3.509000000     2.612000000
O     0.321000000    -4.703000000     4.583000000
H     0.400000000    -4.390000000     3.682000000
H    -0.605000000    -4.584000000     4.797000000
O     1.365000000     3.285000000    -0.043000000
H     1.800000000     2.433000000    -0.080000000
H     1.585000000     3.703000000    -0.875000000
O    -4.386000000     1.925000000     4.301000000
H    -3.922000000     2.277000000     5.060000000
H    -5.066000000     2.572000000     4.114000000
O    -3.010000000    -2.024000000     3.787000000
H    -3.024000000    -2.945000000     3.525000000
H    -3.412000000    -1.560000000     3.052000000
O    -0.982000000     4.499000000     3.976000000
H    -0.199000000     4.730000000     3.478000000
H    -1.416000000     5.335000000     4.142000000
O     2.033000000    -0.567000000    -6.084000000
H     1.868000000    -0.431000000    -5.151000000
H     2.639000000     0.133000000    -6.325000000
O    -1.849000000     3.649000000    -1.579000000
H    -2.364000000     3.944000000    -0.828000000
H    -0.942000000     3.674000000    -1.272000000
O     3.538000000     1.493000000    -3.353000000
H     2.892000000     0.789000000    -3.403000000
H     3.968000000     1.485000000    -4.208000000
O     2.019000000    -5.758000000    -4.365000000
H     1.851000000    -4.892000000    -3.994000000
H     1.207000000    -5.986000000    -4.819000000
O     4.477000000     0.757000000    -6.364000000
H     5.021000000    -0.019000000    -6.494000000
H     5.104000000     1.475000000    -6.272000000
O    -1.081000000    -0.768000000    -7.937000000
H    -1.093000000    -1.704000000    -8.139000000
H    -1.981000000    -0.566000000    -7.683000000
O     2.099000000     4.042000000    -2.907000000
H     2.708000000     3.305000000    -2.969000000
H     1.667000000     4.068000000    -3.761000000
O    -0.869000000    -4.958000000    -1.197000000
H    -0.683000000    -4.611000000    -2.069000000
H    -1.060000000    -5.884000000    -1.343000000
O    -1.954000000     2.155000000    -7.944000000
H    -1.599000000     1.521000000    -7.321000000
H    -1.199000000     2.684000000    -8.205000000
O     2.233000000    -2.092000000     1.449000000
H     2.848000000    -2.622000000     0.941000000
H     2.296000000    -1.218000000     1.064000000
O    -0.402000000     1.152000000    -6.154000000
H    -0.505000000     0.609000000    -5.373000000
H     0.215000000     0.668000000    -6.703000000
O    -0.091000000    -2.133000000     6.604000000
H    -0.678000000    -2.862000000     6.404000000
H     0.138000000    -1.768000000     5.749000000
O     4.079000000    -3.747000000    -1.943000000
H     3.256000000    -3.544000000    -2.387000000
H     4.525000000    -4.356000000    -2.531000000
O     5.230000000     4.096000000     2.043000000
H     6.139000000     4.356000000     2.188000000
H     5.209000000     3.165000000     2.265000000
O    -4.663000000     1.657000000    -5.109000000
H    -4.007000000     1.514000000    -4.427000000
H    -4.662000000     2.604000000    -5.249000000
O    -5.065000000     1.952000000     0.642000000
H    -4.228000000     2.397000000     0.773000000
H    -5.084000000     1.747000000    -0.292000000
