144
-2810.68948
O    -3.788000000     2.588000000    -6.430000000
H    -3.767000000     2.755000000    -7.373000000
H    -3.000000000     3.015000000    -6.094000000
O    -2.835000000    -1.206000000     5.601000000
H    -3.417000000    -1.191000000     4.841000000
H    -2.977000000    -0.361000000     6.028000000
O     0.749000000     2.216000000     4.585000000
H     0.501000000     2.103000000     5.503000000
H     1.655000000     1.909000000     4.542000000
O    -5.381000000    -4.940000000     0.923000000
H    -4.647000000    -4.359000000     0.724000000
H    -5.420000000    -5.540000000     0.178000000
O     0.397000000     0.574000000     7.826000000
H     0.098000000    -0.277000000     8.147000000
H    -0.290000000     1.185000000     8.093000000
O     4.096000000    -1.585000000     0.497000000
H     4.949000000    -1.956000000     0.272000000
H     3.893000000    -0.995000000    -0.230000000
O    -3.165000000    -0.208000000    -3.816000000
H    -3.511000000     0.453000000    -3.216000000
H    -2.261000000     0.063000000    -3.975000000
O    -4.562000000    -2.061000000     0.519000000
H    -5.197000000    -1.511000000     0.061000000
H    -3.883000000    -2.236000000    -0.133000000
O     4.450000000     2.122000000     1.472000000
H     4.503000000     1.228000000     1.135000000
H     4.808000000     2.664000000     0.769000000
O    -3.608000000     1.070000000     2.042000000
H    -3.630000000     1.320000000     1.119000000
H    -4.453000000     1.358000000     2.388000000
O     1.259000000     4.315000000    -3.160000000
H     2.160000000     4.482000000    -3.439000000
H     1.139000000     3.374000000    -3.288000000
O     3.654000000     4.662000000    -4.264000000
H     3.644000000     4.762000000    -5.216000000
H     4.067000000     5.464000000    -3.943000000
O    -4.378000000    -2.816000000    -3.613000000
H    -3.714000000    -3.162000000    -3.017000000
H    -4.151000000    -1.892000000    -3.714000000
O    -0.585000000     6.108000000    -4.001000000
H    -0.113000000     5.390000000    -3.579000000
H    -0.084000000     6.891000000    -3.772000000
O    -4.348000000    -3.748000000     4.443000000
H    -4.295000000    -2.870000000     4.066000000
H    -3.440000000    -3.978000000     4.641000000
O     3.766000000    -0.548000000     5.213000000
H     4.082000000    -1.100000000     4.498000000
H     3.937000000     0.347000000     4.917000000
O     0.993000000     5.112000000     3.545000000
H     1.238000000     5.591000000     4.336000000
H     0.990000000     4.193000000     3.812000000
O    -2.724000000    -3.558000000    -1.656000000
H    -1.908000000    -3.715000000    -2.133000000
H    -2.661000000    -4.119000000    -0.883000000
O     0.643000000    -4.351000000    -1.970000000
H     0.119000000    -4.535000000    -2.749000000
H     0.383000000    -5.025000000    -1.342000000
O     3.717000000    -0.555000000    -2.279000000
H     3.274000000    -1.340000000    -2.601000000
H     3.091000000     0.153000000    -2.429000000
O     0.607000000    -6.151000000     0.488000000
H    -0.210000000    -6.647000000     0.535000000
H     0.760000000    -5.856000000     1.385000000
O     2.313000000    -1.925000000    -7.852000000
H     1.579000000    -2.539000000    -7.829000000
H     2.388000000    -1.608000000    -6.952000000
O     0.084000000    -6.966000000     3.362000000
H     0.270000000    -6.030000000     3.436000000
H    -0.100000000    -7.246000000     4.258000000
O    -2.321000000    -4.582000000     0.716000000
H    -1.834000000    -3.865000000     1.120000000
H    -2.273000000    -5.294000000     1.354000000
O    -0.828000000    -3.903000000    -4.146000000
H    -1.331000000    -4.456000000    -4.743000000
H    -1.095000000    -3.010000000    -4.363000000
O    -1.506000000    -3.695000000     5.224000000
H    -0.571000000    -3.705000000     5.429000000
H    -1.729000000    -2.765000000     5.170000000
O    -4.129000000    -1.324000000     3.261000000
H    -3.873000000    -0.511000000     2.826000000
H    -4.707000000    -1.759000000     2.635000000
O    -2.108000000    -2.342000000    -6.052000000
H    -3.023000000    -2.395000000    -6.326000000
H    -1.861000000    -1.431000000    -6.214000000
O     1.476000000    -2.388000000     5.155000000
H     1.324000000    -2.801000000     6.005000000
H     2.074000000    -1.664000000     5.344000000
O    -1.195000000     5.454000000     1.934000000
H    -0.311000000     5.774000000     2.111000000
H    -1.301000000     4.705000000     2.520000000
O     5.471000000    -1.973000000    -3.994000000
H     4.954000000    -1.525000000    -3.324000000
H     6.211000000    -2.347000000    -3.516000000
O    -1.626000000     2.907000000     3.733000000
H    -1.798000000     2.137000000     3.190000000
H    -0.828000000     2.686000000     4.214000000
O     0.420000000     2.256000000    -8.199000000
H     0.621000000     1.425000000    -8.630000000
H    -0.225000000     2.029000000    -7.530000000
O    -0.938000000     0.030000000    -6.731000000
H    -0.942000000     0.803000000    -6.166000000
H    -0.211000000    -0.501000000    -6.406000000
O     1.479000000    -1.277000000    -5.204000000
H     0.946000000    -0.709000000    -4.648000000
H     1.695000000    -2.024000000    -4.646000000
O     4.513000000     4.163000000    -0.802000000
H     4.020000000     4.550000000    -0.079000000
H     4.427000000     4.794000000    -1.517000000
O     6.662000000     1.213000000    -4.728000000
H     7.066000000     2.034000000    -4.449000000
H     5.764000000     1.265000000    -4.401000000
O     2.502000000    -2.756000000    -3.161000000
H     1.742000000    -3.319000000    -3.018000000
H     3.255000000    -3.333000000    -3.032000000
O    -1.033000000     2.463000000    -5.344000000
H    -0.620000000     3.325000000    -5.404000000
H    -0.482000000     1.976000000    -4.731000000
O     1.243000000     4.968000000     0.055000000
H     1.288000000     4.781000000    -0.883000000
H     1.017000000     4.128000000     0.456000000
O     1.713000000    -3.169000000     1.100000000
H     1.227000000    -2.721000000     0.408000000
H     2.459000000    -2.595000000     1.279000000
O    -3.759000000     3.132000000    -3.320000000
H    -4.183000000     3.266000000    -4.167000000
H    -3.206000000     3.905000000    -3.204000000
O     1.143000000    -4.487000000     3.423000000
H     1.355000000    -3.722000000     3.959000000
H     1.228000000    -4.179000000     2.521000000
O     3.891000000     1.442000000    -7.020000000
H     3.658000000     1.289000000    -6.104000000
H     4.442000000     2.224000000    -6.999000000
O     3.665000000     1.935000000    -4.456000000
H     3.557000000     2.885000000    -4.512000000
H     2.998000000     1.655000000    -3.830000000
O     5.463000000     1.407000000    -1.170000000
H     4.902000000     0.705000000    -1.500000000
H     5.180000000     2.185000000    -1.649000000
O     3.514000000     1.948000000     4.392000000
H     3.903000000     2.614000000     4.959000000
H     3.814000000     2.178000000     3.512000000
O    -4.123000000     2.301000000    -0.242000000
H    -3.660000000     2.553000000    -1.041000000
H    -4.788000000     1.679000000    -0.537000000
