144
-2828.91124
O    -1.476000000    -6.725000000    -3.673000000
H    -1.164000000    -6.167000000    -2.961000000
H    -2.135000000    -6.195000000    -4.121000000
O    -0.784000000     2.122000000    -8.736000000
H    -0.157000000     2.115000000    -8.013000000
H    -1.064000000     3.035000000    -8.802000000
O     2.636000000     1.845000000     3.232000000
H     3.564000000     1.973000000     3.036000000
H     2.531000000     0.895000000     3.286000000
O     2.826000000     3.383000000    -7.618000000
H     2.250000000     2.638000000    -7.449000000
H     3.195000000     3.600000000    -6.762000000
O     0.853000000    -2.102000000    -8.898000000
H     0.907000000    -2.004000000    -7.948000000
H    -0.059000000    -1.899000000    -9.108000000
O    -0.797000000     2.954000000     7.308000000
H     0.036000000     2.856000000     7.769000000
H    -0.567000000     2.883000000     6.381000000
O    -0.946000000    -0.263000000     6.103000000
H    -1.247000000     0.227000000     5.338000000
H    -1.415000000     0.132000000     6.839000000
O    -3.927000000    -1.504000000     5.708000000
H    -3.396000000    -2.179000000     5.285000000
H    -4.251000000    -0.966000000     4.986000000
O    -0.941000000    -2.843000000    -4.021000000
H    -0.825000000    -3.523000000    -3.357000000
H    -0.294000000    -2.175000000    -3.795000000
O     2.532000000    -1.065000000     2.985000000
H     2.456000000    -1.924000000     2.568000000
H     2.264000000    -1.215000000     3.891000000
O    -1.235000000    -4.113000000     0.057000000
H    -1.399000000    -5.047000000     0.188000000
H    -1.788000000    -3.679000000     0.705000000
O    -1.220000000     2.630000000     4.359000000
H    -1.603000000     3.131000000     3.638000000
H    -0.285000000     2.829000000     4.318000000
O    -5.044000000    -0.167000000     1.018000000
H    -4.242000000    -0.530000000     0.643000000
H    -5.505000000     0.217000000     0.272000000
O    -3.309000000    -2.999000000     1.921000000
H    -3.170000000    -2.518000000     1.105000000
H    -3.949000000    -3.674000000     1.695000000
O     3.452000000    -0.413000000     0.083000000
H     3.451000000     0.089000000     0.898000000
H     2.541000000    -0.682000000    -0.034000000
O    -1.726000000     1.616000000    -5.048000000
H    -0.939000000     1.419000000    -4.540000000
H    -1.693000000     2.563000000    -5.184000000
O     4.692000000     0.876000000    -5.355000000
H     4.196000000     1.688000000    -5.249000000
H     5.603000000     1.161000000    -5.428000000
O     3.840000000     4.582000000     1.976000000
H     3.859000000     5.299000000     2.610000000
H     2.921000000     4.516000000     1.717000000
O     1.173000000     3.765000000    -3.753000000
H     0.970000000     2.830000000    -3.759000000
H     0.326000000     4.195000000    -3.867000000
O    -1.978000000     0.081000000    -7.355000000
H    -1.867000000     0.379000000    -6.452000000
H    -1.536000000     0.746000000    -7.882000000
O    -4.454000000     2.667000000     2.316000000
H    -5.337000000     2.684000000     1.946000000
H    -3.963000000     2.082000000     1.739000000
O     4.526000000    -3.210000000     0.953000000
H     4.772000000    -2.972000000     0.059000000
H     5.142000000    -2.730000000     1.506000000
O     4.443000000     4.838000000    -0.840000000
H     4.448000000     5.012000000     0.101000000
H     4.340000000     3.888000000    -0.908000000
O     0.366000000    -4.818000000    -2.147000000
H     0.746000000    -5.654000000    -1.878000000
H     0.146000000    -4.379000000    -1.325000000
O     2.528000000    -5.076000000    -4.375000000
H     1.782000000    -5.046000000    -3.777000000
H     2.758000000    -4.158000000    -4.520000000
O    -2.511000000     3.446000000    -1.802000000
H    -3.327000000     3.934000000    -1.693000000
H    -2.313000000     3.516000000    -2.736000000
O     4.675000000     1.972000000    -0.804000000
H     5.380000000     1.481000000    -1.226000000
H     3.976000000     1.330000000    -0.681000000
O     3.504000000    -1.186000000    -3.363000000
H     3.825000000    -0.583000000    -4.033000000
H     2.560000000    -1.033000000    -3.334000000
O    -2.136000000     4.065000000     1.964000000
H    -2.959000000     3.640000000     1.723000000
H    -2.365000000     4.988000000     2.069000000
O    -3.199000000    -1.817000000    -0.389000000
H    -2.263000000    -2.012000000    -0.442000000
H    -3.526000000    -1.973000000    -1.275000000
O    -0.989000000     6.074000000    -1.112000000
H    -1.817000000     6.012000000    -0.636000000
H    -0.908000000     5.233000000    -1.563000000
O     1.348000000     3.559000000     4.810000000
H     1.702000000     2.901000000     4.211000000
H     1.903000000     3.498000000     5.588000000
O     3.777000000    -4.411000000     3.365000000
H     2.866000000    -4.703000000     3.381000000
H     3.894000000    -4.040000000     2.491000000
O    -2.884000000     1.619000000     0.520000000
H    -1.993000000     1.327000000     0.715000000
H    -2.810000000     2.070000000    -0.320000000
O    -4.732000000     0.197000000     3.656000000
H    -4.497000000    -0.133000000     2.788000000
H    -4.628000000     1.146000000     3.587000000
O    -2.409000000    -3.630000000     4.326000000
H    -3.138000000    -4.225000000     4.502000000
H    -2.476000000    -3.440000000     3.390000000
O     1.275000000    -1.478000000    -6.143000000
H     1.083000000    -1.238000000    -5.236000000
H     2.191000000    -1.753000000    -6.129000000
O    -3.314000000     0.909000000    -3.013000000
H    -3.255000000     1.736000000    -2.535000000
H    -2.818000000     1.061000000    -3.817000000
O     3.762000000     3.776000000    -4.980000000
H     3.060000000     3.828000000    -4.331000000
H     4.350000000     4.496000000    -4.754000000
O    -4.019000000    -1.832000000    -3.041000000
H    -3.700000000    -2.161000000    -3.882000000
H    -3.901000000    -0.884000000    -3.094000000
O     1.029000000    -5.268000000     3.180000000
H     0.214000000    -5.443000000     3.652000000
H     1.046000000    -5.920000000     2.481000000
O     1.446000000    -1.396000000     5.478000000
H     1.329000000    -2.273000000     5.841000000
H     0.568000000    -1.016000000     5.480000000
O     5.074000000    -2.320000000    -1.486000000
H     4.605000000    -1.530000000    -1.219000000
H     4.723000000    -2.525000000    -2.353000000
O     1.127000000     1.206000000    -6.475000000
H     0.977000000     1.238000000    -5.530000000
H     1.320000000     0.285000000    -6.655000000
O     3.978000000    -1.457000000    -6.310000000
H     4.161000000    -1.443000000    -7.249000000
H     4.295000000    -0.612000000    -5.991000000
O    -2.257000000     4.380000000    -4.628000000
H    -1.764000000     5.197000000    -4.546000000
H    -2.954000000     4.583000000    -5.252000000
O     0.522000000     5.510000000     1.993000000
H     0.006000000     5.724000000     2.770000000
H    -0.011000000     4.872000000     1.519000000
O    -2.835000000    -2.104000000    -5.646000000
H    -2.040000000    -2.425000000    -5.220000000
H    -2.517000000    -1.534000000    -6.346000000
