144
-2806.02038
O    -4.296000000     4.215000000     1.560000000
H    -3.515000000     4.696000000     1.287000000
H    -5.018000000     4.826000000     1.409000000
O     3.989000000     0.259000000     2.536000000
H     3.538000000     1.100000000     2.609000000
H     4.835000000     0.403000000     2.961000000
O     0.870000000    -1.223000000     6.622000000
H    -0.013000000    -1.305000000     6.263000000
H     1.163000000    -0.355000000     6.344000000
O    -3.174000000    -3.525000000     5.045000000
H    -2.613000000    -2.840000000     5.408000000
H    -2.845000000    -4.336000000     5.433000000
O    -1.709000000    -3.225000000    -4.406000000
H    -2.582000000    -2.834000000    -4.445000000
H    -1.196000000    -2.614000000    -3.878000000
O    -1.608000000     2.408000000     7.953000000
H    -1.778000000     1.542000000     8.325000000
H    -1.082000000     2.234000000     7.172000000
O     3.757000000    -2.523000000     2.362000000
H     3.655000000    -1.585000000     2.525000000
H     3.258000000    -2.944000000     3.062000000
O     0.119000000    -6.377000000    -0.164000000
H     0.261000000    -7.136000000     0.402000000
H     0.078000000    -5.634000000     0.437000000
O    -0.695000000     1.903000000     5.536000000
H    -1.054000000     2.100000000     4.671000000
H     0.152000000     1.495000000     5.357000000
O    -0.400000000    -4.076000000     1.313000000
H    -0.133000000    -3.157000000     1.315000000
H    -1.335000000    -4.054000000     1.520000000
O     3.433000000    -4.280000000     0.327000000
H     3.817000000    -3.542000000     0.799000000
H     3.440000000    -4.999000000     0.959000000
O    -2.198000000    -0.494000000    -5.949000000
H    -2.134000000     0.428000000    -6.198000000
H    -1.526000000    -0.607000000    -5.276000000
O     3.136000000     2.615000000     3.479000000
H     3.621000000     3.438000000     3.418000000
H     2.281000000     2.812000000     3.096000000
O     0.795000000    -5.657000000    -6.204000000
H     1.362000000    -6.378000000    -5.929000000
H     0.878000000    -5.008000000    -5.506000000
O    -0.412000000     2.790000000    -4.669000000
H    -0.479000000     1.958000000    -4.199000000
H    -0.953000000     3.395000000    -4.162000000
O    -3.199000000    -0.304000000     3.038000000
H    -3.844000000     0.360000000     2.794000000
H    -3.446000000    -1.076000000     2.529000000
O     2.217000000     2.584000000     0.638000000
H     1.512000000     2.313000000     1.225000000
H     2.855000000     1.871000000     0.684000000
O     2.025000000    -6.558000000    -2.203000000
H     2.287000000    -5.639000000    -2.259000000
H     1.320000000    -6.567000000    -1.555000000
O    -1.676000000     1.941000000    -6.868000000
H    -2.483000000     2.454000000    -6.850000000
H    -1.233000000     2.163000000    -6.049000000
O    -3.701000000     2.460000000    -0.506000000
H    -4.473000000     2.724000000    -1.007000000
H    -3.618000000     3.126000000     0.175000000
O     3.324000000     5.205000000    -0.375000000
H     2.701000000     5.892000000    -0.139000000
H     2.853000000     4.388000000    -0.213000000
O     4.795000000     1.439000000    -0.337000000
H     4.327000000     1.348000000    -1.167000000
H     4.850000000     0.547000000     0.006000000
O     1.957000000    -0.661000000    -5.111000000
H     1.865000000     0.290000000    -5.158000000
H     1.156000000    -0.960000000    -4.682000000
O     1.240000000    -5.411000000     3.604000000
H     2.068000000    -5.790000000     3.309000000
H     0.855000000    -5.032000000     2.813000000
O    -2.285000000     2.854000000     3.475000000
H    -2.744000000     3.668000000     3.684000000
H    -2.975000000     2.192000000     3.442000000
O    -4.141000000    -1.988000000    -2.301000000
H    -3.831000000    -1.132000000    -2.599000000
H    -4.038000000    -1.961000000    -1.350000000
O     0.557000000     4.261000000     5.566000000
H     0.100000000     3.484000000     5.887000000
H     1.230000000     4.433000000     6.225000000
O     0.260000000     4.214000000    -0.802000000
H     0.530000000     4.186000000    -1.720000000
H     0.552000000     3.377000000    -0.442000000
O     2.065000000     1.187000000     5.636000000
H     2.439000000     1.860000000     5.067000000
H     2.660000000     1.150000000     6.385000000
O     5.987000000    -2.005000000     0.639000000
H     5.521000000    -1.533000000    -0.051000000
H     5.332000000    -2.134000000     1.326000000
O    -1.589000000    -0.971000000     5.123000000
H    -2.166000000    -0.955000000     4.359000000
H    -1.697000000    -0.108000000     5.523000000
O    -3.561000000    -0.269000000     0.082000000
H    -2.674000000    -0.106000000     0.402000000
H    -3.809000000     0.541000000    -0.362000000
O     1.159000000    -3.904000000    -4.422000000
H     0.657000000    -3.102000000    -4.282000000
H     1.883000000    -3.846000000    -3.799000000
O    -3.580000000     0.733000000    -3.071000000
H    -3.703000000     1.668000000    -3.234000000
H    -2.670000000     0.564000000    -3.315000000
O     2.349000000     2.458000000    -4.948000000
H     1.441000000     2.744000000    -5.049000000
H     2.846000000     3.021000000    -5.542000000
O    -5.187000000     0.108000000    -6.295000000
H    -5.305000000    -0.149000000    -7.210000000
H    -4.253000000    -0.021000000    -6.129000000
O    -1.813000000     5.523000000     0.440000000
H    -1.201000000     4.914000000     0.026000000
H    -2.444000000     5.733000000    -0.248000000
O     2.967000000    -3.844000000    -2.456000000
H     3.027000000    -3.841000000    -1.500000000
H     3.854000000    -3.639000000    -2.752000000
O     2.832000000    -3.225000000     4.827000000
H     2.186000000    -3.903000000     4.628000000
H     2.376000000    -2.625000000     5.416000000
O     4.028000000    -1.467000000    -1.014000000
H     3.081000000    -1.611000000    -1.029000000
H     4.324000000    -1.733000000    -1.884000000
O     0.529000000    -2.206000000    -7.321000000
H    -0.198000000    -2.277000000    -6.702000000
H     1.289000000    -2.000000000    -6.776000000
O     3.687000000    -1.648000000    -6.896000000
H     4.615000000    -1.880000000    -6.871000000
H     3.441000000    -1.546000000    -5.977000000
O    -2.574000000     3.773000000    -3.304000000
H    -3.039000000     4.062000000    -2.519000000
H    -3.073000000     4.147000000    -4.030000000
O    -4.845000000     1.823000000     2.793000000
H    -5.489000000     1.353000000     2.263000000
H    -4.549000000     2.540000000     2.231000000
O    -4.035000000     1.677000000     5.657000000
H    -4.593000000     1.489000000     4.903000000
H    -4.633000000     1.670000000     6.405000000
O     0.608000000     3.699000000     2.928000000
H     0.631000000     3.907000000     3.862000000
H    -0.325000000     3.641000000     2.719000000
O    -1.715000000    -5.657000000    -5.348000000
H    -1.716000000    -4.763000000    -5.004000000
H    -0.796000000    -5.838000000    -5.540000000
O    -6.287000000     0.570000000    -2.618000000
H    -6.648000000     1.250000000    -3.187000000
H    -5.343000000     0.604000000    -2.774000000
