144
-2855.99282
O    -1.364000000    -4.485000000    -0.033000000
H    -1.906000000    -5.146000000     0.398000000
H    -1.917000000    -4.141000000    -0.734000000
O    -2.378000000     2.102000000    -5.853000000
H    -3.239000000     2.418000000    -5.582000000
H    -1.983000000     1.763000000    -5.049000000
O     2.209000000     0.066000000    -4.244000000
H     2.915000000    -0.581000000    -4.249000000
H     1.411000000    -0.450000000    -4.129000000
O    -2.636000000    -2.773000000    -6.156000000
H    -1.974000000    -3.092000000    -5.542000000
H    -3.169000000    -2.168000000    -5.640000000
O     1.695000000    -1.698000000     6.672000000
H     2.562000000    -2.021000000     6.425000000
H     1.085000000    -2.302000000     6.250000000
O     1.469000000    -4.676000000    -0.992000000
H     1.809000000    -5.341000000    -0.393000000
H     0.552000000    -4.572000000    -0.738000000
O    -0.958000000    -1.147000000    -7.981000000
H    -0.664000000    -1.069000000    -7.073000000
H    -1.904000000    -1.008000000    -7.939000000
O     0.713000000     3.622000000     2.906000000
H     1.648000000     3.792000000     2.796000000
H     0.592000000     3.553000000     3.853000000
O     3.803000000    -2.768000000     5.707000000
H     4.264000000    -2.809000000     6.545000000
H     3.983000000    -3.613000000     5.294000000
O    -4.579000000    -2.800000000    -3.263000000
H    -4.740000000    -2.262000000    -2.487000000
H    -4.649000000    -2.188000000    -3.996000000
O     2.622000000    -2.156000000    -0.669000000
H     2.177000000    -3.002000000    -0.608000000
H     2.678000000    -1.983000000    -1.609000000
O     1.908000000     1.094000000     6.120000000
H     2.554000000     1.124000000     5.415000000
H     1.761000000     0.161000000     6.271000000
O    -0.134000000    -1.523000000    -4.547000000
H    -0.665000000    -0.951000000    -3.993000000
H    -0.423000000    -2.408000000    -4.325000000
O    -3.753000000    -0.622000000    -4.988000000
H    -4.195000000     0.219000000    -5.110000000
H    -2.925000000    -0.398000000    -4.563000000
O    -3.097000000     0.825000000    -8.388000000
H    -2.622000000     1.016000000    -7.578000000
H    -2.907000000     1.571000000    -8.957000000
O     3.549000000     3.404000000     2.087000000
H     3.605000000     3.226000000     1.148000000
H     4.318000000     2.973000000     2.459000000
O     2.711000000     2.748000000    -3.629000000
H     2.034000000     3.233000000    -4.101000000
H     2.505000000     1.828000000    -3.792000000
O    -1.473000000    -4.065000000    -4.347000000
H    -0.615000000    -4.467000000    -4.207000000
H    -2.052000000    -4.518000000    -3.735000000
O    -1.357000000     3.120000000     0.988000000
H    -0.685000000     3.292000000     1.647000000
H    -0.875000000     3.063000000     0.163000000
O     1.006000000     5.411000000    -0.490000000
H     0.438000000     5.991000000     0.017000000
H     0.879000000     5.684000000    -1.398000000
O    -2.151000000     1.192000000     2.844000000
H    -2.182000000     1.749000000     3.622000000
H    -1.929000000     1.789000000     2.130000000
O     2.817000000    -6.133000000     1.283000000
H     3.307000000    -6.721000000     1.858000000
H     2.411000000    -5.501000000     1.877000000
O     4.808000000    -0.277000000     1.970000000
H     5.258000000    -1.116000000     1.867000000
H     4.404000000    -0.116000000     1.117000000
O    -1.787000000    -4.617000000     2.920000000
H    -1.770000000    -3.995000000     2.193000000
H    -2.652000000    -5.022000000     2.869000000
O     1.415000000    -4.488000000     3.104000000
H     0.723000000    -3.832000000     3.186000000
H     1.683000000    -4.668000000     4.005000000
O    -4.160000000     5.009000000    -4.987000000
H    -4.154000000     5.820000000    -4.479000000
H    -4.117000000     4.314000000    -4.331000000
O    -3.209000000    -5.154000000    -2.313000000
H    -3.527000000    -4.284000000    -2.553000000
H    -3.985000000    -5.614000000    -1.994000000
O    -2.597000000     5.765000000    -0.983000000
H    -1.911000000     5.154000000    -1.253000000
H    -2.186000000     6.302000000    -0.306000000
O    -1.828000000     3.237000000     4.942000000
H    -2.289000000     3.935000000     5.408000000
H    -1.059000000     3.056000000     5.482000000
O    -3.845000000     1.770000000    -0.102000000
H    -4.551000000     2.296000000     0.274000000
H    -3.047000000     2.130000000     0.285000000
O    -6.255000000    -0.909000000    -0.568000000
H    -5.488000000    -0.945000000    -1.139000000
H    -6.732000000    -1.718000000    -0.756000000
O     4.175000000    -0.178000000     4.827000000
H     4.024000000    -0.211000000     3.882000000
H     4.091000000    -1.087000000     5.115000000
O    -5.098000000     1.609000000    -5.097000000
H    -5.492000000     2.067000000    -4.355000000
H    -5.773000000     1.626000000    -5.775000000
O    -0.474000000    -3.059000000     5.028000000
H    -0.778000000    -2.153000000     4.979000000
H    -1.191000000    -3.573000000     4.654000000
O    -3.714000000     3.332000000    -2.982000000
H    -3.059000000     2.653000000    -3.145000000
H    -3.744000000     3.411000000    -2.028000000
O    -3.669000000    -0.785000000     1.620000000
H    -2.920000000    -0.384000000     2.061000000
H    -3.478000000    -0.687000000     0.687000000
O     3.012000000     3.679000000    -1.163000000
H     2.515000000     4.470000000    -0.953000000
H     2.678000000     3.405000000    -2.017000000
O     0.862000000     6.045000000    -3.033000000
H     0.583000000     5.375000000    -3.656000000
H     0.176000000     6.711000000    -3.074000000
O     0.348000000     4.131000000    -4.726000000
H    -0.062000000     4.347000000    -5.564000000
H    -0.137000000     3.367000000    -4.413000000
O     4.356000000    -4.662000000     3.747000000
H     4.168000000    -4.020000000     3.063000000
H     4.781000000    -5.386000000     3.286000000
O     0.891000000     3.725000000     5.793000000
H     1.274000000     2.849000000     5.832000000
H     1.645000000     4.315000000     5.784000000
O     5.762000000     2.306000000     2.764000000
H     5.590000000     1.365000000     2.780000000
H     6.502000000     2.425000000     3.360000000
O    -1.219000000    -2.666000000     7.929000000
H    -0.941000000    -1.996000000     8.553000000
H    -0.903000000    -2.350000000     7.082000000
O     2.614000000    -2.603000000    -3.597000000
H     1.989000000    -3.259000000    -3.904000000
H     3.384000000    -3.108000000    -3.336000000
O    -1.621000000    -0.654000000     5.184000000
H    -2.411000000    -1.195000000     5.202000000
H    -1.799000000     0.007000000     4.515000000
O     4.363000000    -2.851000000     1.477000000
H     4.930000000    -3.354000000     0.891000000
H     3.780000000    -2.370000000     0.890000000
O    -3.767000000    -0.512000000    -1.687000000
H    -3.877000000     0.346000000    -1.278000000
H    -3.134000000    -0.363000000    -2.389000000
O     3.560000000     1.191000000    -0.516000000
H     3.340000000     2.041000000    -0.898000000
H     2.729000000     0.717000000    -0.492000000
