144
-2826.01565
O    -6.802000000     0.188000000    -0.896000000
H    -6.366000000     0.223000000    -1.747000000
H    -6.576000000     1.019000000    -0.477000000
O    -0.290000000    -1.464000000    -5.493000000
H    -0.999000000    -1.188000000    -6.073000000
H     0.243000000    -0.677000000    -5.375000000
O     4.056000000     3.320000000    -0.729000000
H     4.262000000     4.234000000    -0.925000000
H     4.350000000     2.836000000    -1.500000000
O    -1.003000000     2.316000000     4.043000000
H    -0.914000000     1.398000000     4.297000000
H    -0.112000000     2.594000000     3.832000000
O    -0.550000000     0.470000000     7.607000000
H     0.117000000     0.452000000     8.294000000
H    -1.210000000     1.083000000     7.930000000
O     4.972000000    -1.046000000     0.030000000
H     5.748000000    -1.047000000    -0.531000000
H     4.389000000    -1.693000000    -0.367000000
O    -2.798000000    -2.342000000    -3.790000000
H    -2.705000000    -1.406000000    -3.966000000
H    -2.769000000    -2.752000000    -4.655000000
O    -5.208000000    -3.519000000     3.400000000
H    -6.033000000    -3.482000000     3.884000000
H    -4.912000000    -2.609000000     3.360000000
O    -2.993000000     3.988000000     4.686000000
H    -2.581000000     4.850000000     4.629000000
H    -2.293000000     3.373000000     4.465000000
O     1.221000000     3.113000000    -7.131000000
H     1.556000000     4.006000000    -7.215000000
H     0.740000000     2.961000000    -7.945000000
O    -3.900000000    -0.898000000     3.310000000
H    -3.319000000    -0.747000000     4.056000000
H    -4.132000000    -0.020000000     3.006000000
O    -1.048000000     5.194000000     0.864000000
H    -0.203000000     4.884000000     1.190000000
H    -1.382000000     4.469000000     0.336000000
O     5.505000000    -0.729000000    -3.956000000
H     4.734000000    -0.603000000    -4.509000000
H     5.478000000    -1.655000000    -3.715000000
O    -1.111000000     3.008000000    -1.135000000
H    -0.931000000     2.189000000    -0.674000000
H    -1.761000000     2.772000000    -1.797000000
O     4.799000000     1.685000000    -2.845000000
H     3.913000000     1.753000000    -3.201000000
H     5.016000000     0.756000000    -2.921000000
O    -5.933000000     0.772000000    -3.588000000
H    -5.364000000     1.537000000    -3.509000000
H    -6.151000000     0.731000000    -4.519000000
O    -3.889000000     2.438000000    -4.013000000
H    -3.274000000     1.705000000    -3.983000000
H    -3.421000000     3.161000000    -3.597000000
O    -3.238000000    -4.912000000     0.684000000
H    -2.719000000    -4.248000000     0.230000000
H    -2.877000000    -4.932000000     1.571000000
O    -3.946000000    -1.737000000     0.474000000
H    -3.187000000    -2.094000000     0.013000000
H    -3.649000000    -1.635000000     1.379000000
O     2.524000000    -1.333000000    -3.597000000
H     2.823000000    -1.352000000    -4.506000000
H     1.859000000    -0.646000000    -3.577000000
O    -1.857000000    -0.594000000     5.333000000
H    -2.019000000    -1.425000000     5.779000000
H    -1.602000000     0.008000000     6.033000000
O     1.943000000     1.654000000     6.886000000
H     1.004000000     1.477000000     6.938000000
H     2.264000000     1.046000000     6.220000000
O     4.270000000     0.913000000     1.846000000
H     4.624000000     0.302000000     1.200000000
H     4.223000000     1.750000000     1.384000000
O    -2.831000000    -5.027000000     3.329000000
H    -2.201000000    -4.389000000     3.665000000
H    -3.630000000    -4.520000000     3.184000000
O    -3.065000000     4.176000000    -7.158000000
H    -2.370000000     3.793000000    -6.622000000
H    -3.849000000     3.678000000    -6.925000000
O    -2.809000000     4.608000000    -2.905000000
H    -2.722000000     5.537000000    -3.117000000
H    -3.141000000     4.597000000    -2.007000000
O    -0.597000000    -3.274000000     3.646000000
H    -0.478000000    -2.326000000     3.586000000
H     0.121000000    -3.571000000     4.204000000
O    -4.984000000     1.554000000     2.915000000
H    -4.689000000     2.452000000     2.766000000
H    -5.895000000     1.644000000     3.196000000
O    -6.514000000    -2.091000000     0.643000000
H    -5.560000000    -2.149000000     0.707000000
H    -6.672000000    -1.262000000     0.191000000
O    -6.138000000     2.826000000    -0.277000000
H    -5.294000000     3.239000000    -0.462000000
H    -6.471000000     3.294000000     0.489000000
O     0.540000000    -4.419000000     5.963000000
H     1.397000000    -4.120000000     6.267000000
H    -0.082000000    -4.023000000     6.574000000
O     3.744000000    -1.506000000    -6.122000000
H     3.851000000    -2.454000000    -6.195000000
H     3.759000000    -1.193000000    -7.027000000
O     3.425000000    -0.914000000     6.146000000
H     3.503000000    -0.265000000     5.447000000
H     4.025000000    -0.607000000     6.826000000
O     2.085000000     2.650000000    -4.107000000
H     1.477000000     1.913000000    -4.047000000
H     2.359000000     2.661000000    -5.024000000
O     2.388000000    -5.402000000    -0.709000000
H     2.516000000    -5.808000000     0.149000000
H     2.653000000    -4.491000000    -0.584000000
O     0.360000000     4.820000000    -3.027000000
H    -0.345000000     4.522000000    -2.451000000
H     0.794000000     4.016000000    -3.311000000
O    -1.918000000    -3.154000000    -0.920000000
H    -2.125000000    -2.768000000    -1.771000000
H    -1.338000000    -3.887000000    -1.123000000
O    -1.979000000     0.091000000    -7.596000000
H    -1.751000000     0.777000000    -6.970000000
H    -1.994000000     0.535000000    -8.444000000
O     4.974000000    -3.392000000    -3.126000000
H     4.162000000    -3.079000000    -2.727000000
H     4.844000000    -4.335000000    -3.226000000
O     1.553000000     3.443000000     3.691000000
H     2.012000000     3.978000000     4.339000000
H     1.677000000     3.909000000     2.864000000
O     6.468000000    -2.211000000     2.188000000
H     5.732000000    -2.093000000     1.587000000
H     6.486000000    -3.152000000     2.363000000
O     0.622000000    -3.457000000     0.985000000
H    -0.227000000    -3.053000000     0.804000000
H     0.512000000    -3.874000000     1.839000000
O     3.475000000    -3.497000000     6.132000000
H     4.273000000    -3.598000000     5.613000000
H     3.445000000    -2.564000000     6.347000000
O     3.072000000     1.019000000     4.292000000
H     2.458000000     1.717000000     4.065000000
H     3.407000000     0.711000000     3.450000000
O    -1.050000000     1.828000000    -5.879000000
H    -1.034000000     1.397000000    -5.025000000
H    -0.136000000     2.052000000    -6.053000000
O     2.584000000    -2.827000000    -1.123000000
H     2.489000000    -2.320000000    -1.930000000
H     1.823000000    -2.584000000    -0.596000000
O     1.832000000     4.592000000     1.242000000
H     2.117000000     4.087000000     0.480000000
H     2.193000000     5.467000000     1.098000000
O    -5.568000000     2.974000000    -6.355000000
H    -6.111000000     2.231000000    -6.618000000
H    -5.189000000     2.708000000    -5.517000000
