144
-2814.41703
O     0.474000000    -4.770000000    -6.753000000
H     1.179000000    -4.690000000    -6.110000000
H    -0.084000000    -4.009000000    -6.593000000
O    -0.001000000    -2.154000000    -6.040000000
H     0.254000000    -1.509000000    -6.699000000
H    -0.213000000    -1.634000000    -5.265000000
O     2.798000000     0.718000000    -2.424000000
H     2.484000000     0.404000000    -3.273000000
H     2.044000000     0.626000000    -1.842000000
O    -4.603000000     2.191000000     5.129000000
H    -4.767000000     2.513000000     4.243000000
H    -4.486000000     2.983000000     5.654000000
O    -2.601000000     4.106000000    -1.026000000
H    -2.856000000     4.429000000    -1.891000000
H    -2.219000000     4.867000000    -0.589000000
O     0.414000000     5.002000000     5.130000000
H    -0.510000000     5.254000000     5.107000000
H     0.493000000     4.455000000     5.911000000
O    -2.502000000    -3.539000000    -4.257000000
H    -1.950000000    -2.841000000    -3.905000000
H    -2.660000000    -3.284000000    -5.167000000
O    -3.079000000    -0.084000000     4.823000000
H    -3.563000000     0.009000000     4.002000000
H    -3.304000000     0.700000000     5.324000000
O    -0.860000000     6.081000000    -0.117000000
H    -1.409000000     6.665000000     0.406000000
H    -0.436000000     5.512000000     0.525000000
O    -0.901000000    -1.456000000     6.371000000
H    -0.554000000    -0.928000000     7.090000000
H    -1.561000000    -0.896000000     5.960000000
O     2.169000000     2.885000000     0.555000000
H     1.784000000     2.297000000    -0.095000000
H     1.427000000     3.385000000     0.895000000
O     2.681000000     3.567000000    -2.783000000
H     2.931000000     2.646000000    -2.854000000
H     1.727000000     3.563000000    -2.860000000
O    -4.155000000     0.340000000    -2.843000000
H    -4.623000000     1.081000000    -2.456000000
H    -4.306000000    -0.383000000    -2.233000000
O     2.882000000     4.262000000     3.342000000
H     3.622000000     4.204000000     2.738000000
H     3.252000000     4.038000000     4.196000000
O     3.900000000     2.269000000     5.532000000
H     3.654000000     2.840000000     6.260000000
H     3.518000000     1.420000000     5.754000000
O    -3.993000000     2.222000000     0.334000000
H    -3.423000000     2.940000000     0.060000000
H    -4.645000000     2.154000000    -0.364000000
O    -0.477000000    -2.959000000     3.819000000
H    -0.624000000    -2.308000000     4.505000000
H    -1.046000000    -2.683000000     3.101000000
O     2.110000000    -3.454000000    -3.322000000
H     2.307000000    -3.523000000    -4.256000000
H     1.304000000    -2.938000000    -3.285000000
O     0.662000000     0.502000000     7.781000000
H     1.458000000    -0.016000000     7.898000000
H     0.949000000     1.277000000     7.299000000
O    -1.751000000     5.412000000     3.108000000
H    -2.463000000     5.400000000     2.469000000
H    -1.814000000     6.273000000     3.521000000
O     3.591000000    -0.503000000     7.235000000
H     4.372000000    -0.958000000     7.551000000
H     3.399000000    -0.916000000     6.393000000
O     5.505000000    -1.034000000    -0.973000000
H     4.909000000    -0.344000000    -0.680000000
H     4.937000000    -1.786000000    -1.140000000
O    -0.214000000    -5.674000000     2.867000000
H    -0.512000000    -4.864000000     3.280000000
H    -0.993000000    -6.024000000     2.436000000
O    -1.742000000     3.822000000    -5.030000000
H    -2.494000000     4.143000000    -5.528000000
H    -1.953000000     2.907000000    -4.843000000
O    -2.054000000     1.050000000    -4.737000000
H    -1.269000000     0.763000000    -4.271000000
H    -2.751000000     0.485000000    -4.405000000
O     0.337000000     4.449000000     1.706000000
H     1.062000000     4.123000000     2.238000000
H    -0.347000000     4.665000000     2.340000000
O    -1.325000000    -6.224000000    -3.965000000
H    -1.982000000    -6.811000000    -4.340000000
H    -1.603000000    -5.349000000    -4.235000000
O     5.192000000     2.110000000     2.665000000
H     4.802000000     1.916000000     3.518000000
H     6.115000000     2.277000000     2.856000000
O    -2.037000000    -1.648000000     2.116000000
H    -1.629000000    -1.326000000     1.312000000
H    -2.333000000    -0.857000000     2.568000000
O    -4.459000000    -4.692000000    -2.433000000
H    -3.741000000    -4.406000000    -2.998000000
H    -4.985000000    -5.269000000    -2.988000000
O    -4.102000000     0.121000000     2.288000000
H    -3.879000000     0.869000000     1.733000000
H    -5.058000000     0.072000000     2.249000000
O    -1.588000000     3.343000000     6.550000000
H    -1.737000000     3.594000000     7.462000000
H    -2.449000000     3.418000000     6.137000000
O     2.876000000    -3.909000000    -5.734000000
H     2.713000000    -3.495000000    -6.581000000
H     3.826000000    -3.871000000    -5.627000000
O     2.354000000    -0.079000000    -5.199000000
H     1.453000000    -0.278000000    -4.945000000
H     2.349000000    -0.124000000    -6.155000000
O     1.980000000    -0.439000000    -7.805000000
H     2.673000000    -1.098000000    -7.788000000
H     1.371000000    -0.749000000    -8.476000000
O     3.347000000    -6.166000000    -1.246000000
H     2.620000000    -6.232000000    -1.865000000
H     3.427000000    -5.229000000    -1.069000000
O     0.099000000     3.672000000    -2.384000000
H    -0.003000000     4.589000000    -2.129000000
H    -0.729000000     3.261000000    -2.137000000
O    -0.302000000    -5.093000000    -1.338000000
H    -0.392000000    -5.932000000    -1.789000000
H    -0.917000000    -4.513000000    -1.787000000
O    -2.877000000    -1.476000000    -6.737000000
H    -1.941000000    -1.368000000    -6.907000000
H    -3.287000000    -0.725000000    -7.168000000
O     1.555000000    -6.380000000    -3.575000000
H     1.654000000    -5.444000000    -3.747000000
H     0.659000000    -6.580000000    -3.845000000
O     4.109000000     0.816000000     0.532000000
H     4.563000000     1.278000000     1.238000000
H     3.320000000     1.335000000     0.376000000
O     3.529000000    -1.305000000     4.511000000
H     3.677000000    -1.033000000     3.606000000
H     3.070000000    -2.142000000     4.438000000
O     2.198000000    -3.664000000     3.991000000
H     2.001000000    -4.580000000     4.186000000
H     1.341000000    -3.252000000     3.884000000
O     4.775000000    -1.419000000     2.061000000
H     4.862000000    -0.889000000     1.269000000
H     5.510000000    -1.150000000     2.612000000
O     1.613000000    -4.463000000     0.495000000
H     0.997000000    -4.439000000     1.227000000
H     1.069000000    -4.644000000    -0.271000000
O    -0.770000000     1.163000000    -7.150000000
H    -1.333000000     1.136000000    -6.376000000
H    -0.187000000     1.906000000    -6.995000000
O     3.724000000    -3.345000000    -1.277000000
H     3.293000000    -3.375000000    -2.131000000
H     3.007000000    -3.389000000    -0.644000000
O     4.176000000    -4.108000000     2.207000000
H     4.301000000    -3.181000000     2.003000000
H     3.319000000    -4.146000000     2.631000000
