144
-2794.14722
O     1.303000000    -4.487000000    -1.688000000
H     0.394000000    -4.704000000    -1.894000000
H     1.678000000    -5.307000000    -1.366000000
O    -1.652000000    -4.984000000    -2.641000000
H    -1.530000000    -4.050000000    -2.469000000
H    -2.587000000    -5.134000000    -2.504000000
O    -1.768000000     4.904000000    -1.255000000
H    -1.913000000     4.592000000    -0.361000000
H    -2.606000000     4.763000000    -1.696000000
O    -2.280000000     4.027000000     2.141000000
H    -2.798000000     4.832000000     2.172000000
H    -1.465000000     4.249000000     2.591000000
O     5.771000000     1.840000000     0.877000000
H     5.608000000     1.937000000    -0.061000000
H     5.889000000     2.736000000     1.193000000
O    -4.559000000    -0.369000000     1.469000000
H    -4.108000000    -0.790000000     0.737000000
H    -4.711000000     0.528000000     1.172000000
O    -4.887000000    -6.733000000    -1.170000000
H    -4.679000000    -5.828000000    -1.398000000
H    -5.843000000    -6.758000000    -1.138000000
O    -4.250000000     2.341000000     1.577000000
H    -4.674000000     3.025000000     1.058000000
H    -3.438000000     2.744000000     1.886000000
O     3.592000000     5.631000000     4.244000000
H     3.229000000     6.496000000     4.432000000
H     3.776000000     5.647000000     3.305000000
O     3.137000000    -4.961000000     1.073000000
H     3.234000000    -4.185000000     0.521000000
H     2.552000000    -5.535000000     0.578000000
O     0.762000000     5.281000000    -1.551000000
H    -0.183000000     5.173000000    -1.652000000
H     0.862000000     6.133000000    -1.127000000
O    -1.023000000    -6.977000000     0.672000000
H    -0.966000000    -6.888000000    -0.279000000
H    -1.367000000    -6.135000000     0.971000000
O     1.616000000     3.224000000    -3.502000000
H     2.418000000     2.711000000    -3.407000000
H     1.665000000     3.877000000    -2.804000000
O    -4.550000000    -1.404000000     4.035000000
H    -4.437000000    -1.009000000     3.171000000
H    -4.546000000    -2.346000000     3.871000000
O    -4.031000000     4.278000000    -2.700000000
H    -4.494000000     4.866000000    -3.297000000
H    -3.823000000     3.510000000    -3.232000000
O     5.498000000    -0.855000000     1.626000000
H     5.630000000     0.027000000     1.279000000
H     5.880000000    -1.432000000     0.965000000
O     4.260000000    -2.930000000    -0.842000000
H     3.951000000    -2.929000000    -1.748000000
H     5.186000000    -2.696000000    -0.905000000
O    -5.136000000     0.139000000    -2.569000000
H    -4.593000000     0.927000000    -2.600000000
H    -4.775000000    -0.372000000    -1.845000000
O     3.831000000    -0.234000000     3.675000000
H     3.962000000     0.710000000     3.588000000
H     4.332000000    -0.613000000     2.953000000
O    -6.829000000    -3.762000000    -3.057000000
H    -7.245000000    -3.325000000    -2.314000000
H    -7.529000000    -3.854000000    -3.703000000
O     4.394000000     6.055000000     0.505000000
H     4.648000000     5.836000000    -0.392000000
H     3.451000000     5.894000000     0.532000000
O    -2.100000000    -1.833000000    -3.774000000
H    -2.342000000    -2.332000000    -2.994000000
H    -1.592000000    -1.095000000    -3.437000000
O     1.965000000     6.052000000     1.784000000
H     1.604000000     6.814000000     1.332000000
H     1.201000000     5.517000000     2.000000000
O    -3.217000000     1.730000000    -4.179000000
H    -3.538000000     1.397000000    -5.017000000
H    -2.277000000     1.851000000    -4.313000000
O    -0.969000000    -7.820000000    -2.117000000
H    -0.186000000    -7.974000000    -2.646000000
H    -1.305000000    -6.979000000    -2.427000000
O    -5.704000000    -3.895000000     0.740000000
H    -6.456000000    -4.374000000     0.391000000
H    -5.699000000    -3.070000000     0.254000000
O    -4.336000000    -4.410000000    -2.451000000
H    -3.804000000    -3.623000000    -2.333000000
H    -5.110000000    -4.107000000    -2.924000000
O     5.888000000     4.587000000     2.162000000
H     5.300000000     5.056000000     1.570000000
H     6.733000000     5.022000000     2.054000000
O     2.207000000     1.992000000     5.036000000
H     2.491000000     1.401000000     5.733000000
H     3.021000000     2.343000000     4.674000000
O     2.790000000    -2.779000000    -3.327000000
H     2.322000000    -3.276000000    -2.656000000
H     2.356000000    -1.926000000    -3.340000000
O     4.623000000    -3.593000000     2.790000000
H     4.719000000    -2.684000000     2.506000000
H     4.082000000    -3.999000000     2.113000000
O    -7.539000000     0.052000000     1.908000000
H    -6.620000000    -0.140000000     2.094000000
H    -8.021000000    -0.667000000     2.316000000
O     1.248000000    -4.950000000     3.409000000
H     0.305000000    -4.819000000     3.307000000
H     1.614000000    -4.727000000     2.553000000
O     4.813000000     2.368000000     3.730000000
H     5.503000000     2.070000000     4.323000000
H     5.234000000     3.034000000     3.187000000
O    -0.522000000    -2.105000000     2.729000000
H    -0.301000000    -1.227000000     3.040000000
H    -0.628000000    -2.004000000     1.783000000
O    -4.593000000    -1.269000000    -4.955000000
H    -5.080000000    -1.013000000    -4.172000000
H    -3.719000000    -1.488000000    -4.633000000
O    -0.653000000    -6.228000000    -4.813000000
H     0.027000000    -5.957000000    -5.430000000
H    -0.687000000    -5.521000000    -4.169000000
O     1.684000000    -1.876000000     5.061000000
H     1.439000000    -2.553000000     4.430000000
H     1.737000000    -1.073000000     4.542000000
O    -0.630000000     1.980000000    -4.641000000
H    -0.345000000     1.253000000    -5.195000000
H     0.158000000     2.241000000    -4.165000000
O     0.023000000    -2.362000000    -6.043000000
H    -0.072000000    -2.481000000    -5.097000000
H    -0.790000000    -2.710000000    -6.410000000
O    -2.753000000    -4.268000000     0.596000000
H    -2.559000000    -3.737000000    -0.177000000
H    -3.698000000    -4.414000000     0.555000000
O    -1.406000000    -5.085000000     2.946000000
H    -1.780000000    -4.435000000     2.352000000
H    -1.780000000    -4.871000000     3.801000000
O     4.075000000     2.068000000    -3.761000000
H     4.753000000     2.373000000    -4.364000000
H     3.650000000     1.346000000    -4.223000000
O     4.327000000     4.639000000    -2.293000000
H     4.497000000     3.713000000    -2.470000000
H     4.045000000     4.996000000    -3.136000000
O    -5.517000000     4.158000000    -0.200000000
H    -5.028000000     4.218000000    -1.021000000
H    -6.432000000     4.084000000    -0.472000000
O     0.807000000    -0.551000000    -2.927000000
H     1.422000000     0.108000000    -3.249000000
H     0.810000000    -0.438000000    -1.976000000
O    -0.102000000     0.283000000     3.811000000
H    -0.927000000     0.766000000     3.860000000
H     0.564000000     0.921000000     4.068000000
O     6.119000000     1.856000000    -1.766000000
H     5.367000000     1.824000000    -2.358000000
H     6.876000000     1.938000000    -2.346000000
