144
-2811.55234
O    -2.467000000     0.985000000    -2.822000000
H    -2.786000000     0.088000000    -2.915000000
H    -1.969000000     1.146000000    -3.624000000
O    -3.795000000     2.946000000    -0.392000000
H    -3.841000000     2.297000000     0.310000000
H    -3.450000000     2.463000000    -1.143000000
O     1.077000000     2.852000000    -5.034000000
H     1.289000000     2.625000000    -4.128000000
H     0.433000000     3.556000000    -4.960000000
O     5.466000000     1.014000000     0.514000000
H     5.957000000     1.502000000     1.176000000
H     5.124000000     1.687000000    -0.074000000
O    -6.511000000     3.548000000     1.987000000
H    -7.331000000     3.058000000     1.925000000
H    -5.857000000     2.892000000     2.227000000
O    -5.889000000    -4.296000000    -2.153000000
H    -6.385000000    -4.518000000    -1.365000000
H    -5.948000000    -3.343000000    -2.213000000
O    -4.150000000    -1.187000000     2.283000000
H    -4.302000000    -1.814000000     1.576000000
H    -4.969000000    -1.183000000     2.779000000
O     4.590000000    -3.072000000    -2.071000000
H     3.979000000    -3.608000000    -1.565000000
H     4.153000000    -2.942000000    -2.913000000
O    -2.008000000     5.182000000     0.316000000
H    -2.634000000     4.787000000     0.923000000
H    -1.401000000     4.473000000     0.102000000
O     2.306000000    -7.230000000    -0.642000000
H     1.909000000    -6.384000000    -0.437000000
H     1.582000000    -7.854000000    -0.588000000
O     3.597000000     0.216000000     3.628000000
H     3.195000000     1.014000000     3.285000000
H     2.983000000    -0.095000000     4.293000000
O    -0.995000000     3.069000000    -1.720000000
H    -1.098000000     3.658000000    -2.467000000
H    -1.257000000     2.211000000    -2.053000000
O     3.923000000    -3.036000000    -4.730000000
H     3.013000000    -3.097000000    -4.439000000
H     3.983000000    -3.652000000    -5.460000000
O     4.938000000    -1.845000000     0.452000000
H     4.839000000    -1.999000000    -0.487000000
H     5.025000000    -0.895000000     0.530000000
O     1.703000000     2.456000000    -2.381000000
H     2.265000000     3.129000000    -1.997000000
H     0.816000000     2.713000000    -2.129000000
O     1.820000000    -0.124000000    -3.413000000
H     1.623000000     0.663000000    -2.905000000
H     0.973000000    -0.556000000    -3.523000000
O    -6.457000000     2.237000000    -1.196000000
H    -6.117000000     1.913000000    -2.030000000
H    -5.738000000     2.749000000    -0.826000000
O    -2.696000000    -3.193000000    -5.391000000
H    -2.981000000    -3.833000000    -4.739000000
H    -2.360000000    -2.460000000    -4.876000000
O     2.308000000    -4.281000000    -0.163000000
H     2.184000000    -3.728000000     0.609000000
H     1.459000000    -4.267000000    -0.606000000
O     0.938000000     6.079000000    -2.985000000
H     0.477000000     6.720000000    -2.444000000
H     0.268000000     5.739000000    -3.578000000
O     3.333000000     3.518000000     3.549000000
H     3.090000000     4.113000000     2.839000000
H     2.580000000     3.528000000     4.139000000
O     0.517000000    -6.597000000     1.981000000
H    -0.083000000    -6.024000000     2.458000000
H     0.242000000    -7.483000000     2.219000000
O     1.623000000    -4.012000000    -3.756000000
H     1.888000000    -4.924000000    -3.872000000
H     1.076000000    -4.019000000    -2.971000000
O     0.061000000     6.979000000     1.456000000
H    -0.215000000     7.892000000     1.386000000
H    -0.607000000     6.489000000     0.976000000
O     6.004000000     1.775000000     3.657000000
H     5.759000000     0.868000000     3.475000000
H     5.250000000     2.139000000     4.119000000
O    -0.293000000    -7.735000000    -1.692000000
H    -1.034000000    -7.425000000    -2.213000000
H     0.108000000    -8.419000000    -2.229000000
O     2.994000000     5.868000000     1.163000000
H     3.225000000     5.146000000     0.579000000
H     2.095000000     6.093000000     0.922000000
O    -3.553000000    -4.598000000    -3.286000000
H    -3.094000000    -3.923000000    -2.786000000
H    -4.443000000    -4.593000000    -2.933000000
O     1.258000000     3.582000000     5.024000000
H     1.243000000     2.883000000     5.678000000
H     0.921000000     4.350000000     5.485000000
O     2.912000000     4.737000000    -1.710000000
H     2.041000000     5.134000000    -1.709000000
H     3.373000000     5.174000000    -2.427000000
O     4.443000000     2.677000000    -1.238000000
H     3.930000000     3.484000000    -1.283000000
H     3.966000000     2.059000000    -1.791000000
O    -5.725000000    -1.377000000    -1.813000000
H    -5.994000000    -0.783000000    -2.514000000
H    -6.156000000    -1.034000000    -1.030000000
O    -1.942000000    -5.235000000     2.778000000
H    -1.932000000    -4.311000000     3.025000000
H    -1.823000000    -5.231000000     1.828000000
O    -4.069000000    -3.064000000     0.437000000
H    -3.244000000    -3.365000000     0.056000000
H    -4.622000000    -2.861000000    -0.318000000
O    -0.555000000     0.718000000     3.980000000
H    -0.420000000     1.495000000     4.523000000
H    -1.355000000     0.905000000     3.489000000
O    -3.550000000     2.441000000     4.596000000
H    -3.808000000     3.316000000     4.883000000
H    -2.936000000     2.140000000     5.266000000
O     3.103000000    -2.302000000     2.283000000
H     3.266000000    -1.440000000     2.665000000
H     3.619000000    -2.309000000     1.477000000
O    -4.044000000    -6.677000000    -1.143000000
H    -3.753000000    -6.697000000    -2.055000000
H    -3.418000000    -6.100000000    -0.706000000
O     0.193000000    -2.931000000     2.024000000
H     0.987000000    -2.621000000     2.460000000
H     0.169000000    -2.445000000     1.199000000
O     0.266000000     6.090000000     5.464000000
H    -0.181000000     6.833000000     5.869000000
H     0.001000000     6.122000000     4.545000000
O    -1.674000000    -5.691000000    -0.160000000
H    -1.529000000    -4.870000000    -0.631000000
H    -1.091000000    -6.318000000    -0.588000000
O     3.230000000     0.892000000    -5.535000000
H     2.942000000     0.449000000    -4.737000000
H     2.619000000     1.622000000    -5.638000000
O     1.573000000    -1.056000000     5.165000000
H     1.118000000    -1.658000000     5.754000000
H     0.884000000    -0.482000000     4.831000000
O    -1.675000000     6.878000000    -2.026000000
H    -2.569000000     7.184000000    -2.178000000
H    -1.775000000     6.132000000    -1.435000000
O     0.652000000    -2.056000000    -5.891000000
H     1.587000000    -1.891000000    -5.770000000
H     0.491000000    -2.874000000    -5.421000000
O    -1.813000000    -2.292000000     3.962000000
H    -2.436000000    -2.036000000     3.282000000
H    -0.953000000    -2.154000000     3.564000000
O    -3.125000000    -1.634000000    -2.978000000
H    -2.591000000    -2.131000000    -2.358000000
H    -4.024000000    -1.764000000    -2.676000000
O    -3.911000000     1.643000000     2.006000000
H    -3.747000000     1.902000000     2.913000000
H    -4.091000000     0.704000000     2.054000000
