144
-2821.58290
O     2.820000000    -4.021000000    -0.479000000
H     3.260000000    -4.804000000    -0.149000000
H     1.924000000    -4.308000000    -0.658000000
O     0.394000000    -8.145000000    -0.113000000
H     0.415000000    -7.270000000    -0.502000000
H    -0.408000000    -8.540000000    -0.455000000
O    -2.006000000     3.613000000    -2.762000000
H    -2.463000000     3.009000000    -2.176000000
H    -1.501000000     4.178000000    -2.178000000
O    -0.825000000     5.342000000    -1.226000000
H    -0.143000000     5.887000000    -1.619000000
H    -0.599000000     5.310000000    -0.296000000
O     1.034000000    -1.376000000    -4.279000000
H     0.402000000    -1.408000000    -4.997000000
H     1.074000000    -0.451000000    -4.037000000
O     6.550000000     4.435000000     1.757000000
H     5.863000000     4.405000000     1.091000000
H     6.340000000     5.205000000     2.285000000
O    -4.166000000     1.866000000     1.361000000
H    -4.335000000     0.925000000     1.316000000
H    -4.094000000     2.141000000     0.447000000
O    -4.119000000     2.057000000    -1.318000000
H    -4.530000000     1.259000000    -1.651000000
H    -4.619000000     2.769000000    -1.717000000
O     5.135000000    -2.766000000     2.570000000
H     4.570000000    -3.535000000     2.645000000
H     5.494000000    -2.818000000     1.685000000
O    -3.684000000    -4.390000000     0.993000000
H    -2.981000000    -4.109000000     0.407000000
H    -4.387000000    -4.669000000     0.407000000
O    -0.362000000     2.824000000    -4.594000000
H    -0.959000000     3.100000000    -3.898000000
H     0.019000000     3.638000000    -4.921000000
O     5.138000000     1.431000000     2.568000000
H     4.868000000     2.346000000     2.491000000
H     5.911000000     1.362000000     2.008000000
O     6.211000000    -1.807000000    -2.673000000
H     5.274000000    -1.675000000    -2.816000000
H     6.549000000    -0.935000000    -2.472000000
O    -5.403000000    -0.520000000    -2.031000000
H    -4.663000000    -1.000000000    -1.659000000
H    -5.439000000    -0.805000000    -2.944000000
O     3.457000000    -0.571000000     3.132000000
H     4.167000000    -1.206000000     3.032000000
H     3.789000000     0.226000000     2.720000000
O    -5.775000000    -4.815000000    -0.681000000
H    -6.090000000    -5.709000000    -0.548000000
H    -6.125000000    -4.562000000    -1.535000000
O     4.155000000     6.278000000     0.331000000
H     3.847000000     5.779000000    -0.426000000
H     3.354000000     6.567000000     0.769000000
O     7.248000000     1.010000000     0.101000000
H     6.592000000     0.920000000    -0.590000000
H     7.760000000     1.778000000    -0.152000000
O     0.101000000    -5.259000000    -0.820000000
H    -0.421000000    -4.607000000    -0.352000000
H    -0.185000000    -5.188000000    -1.730000000
O     1.787000000     6.717000000     1.460000000
H     1.324000000     7.549000000     1.355000000
H     1.092000000     6.062000000     1.520000000
O     2.042000000    -6.974000000    -2.444000000
H     2.151000000    -6.156000000    -1.960000000
H     2.847000000    -7.463000000    -2.273000000
O    -4.575000000    -0.575000000    -4.883000000
H    -5.444000000    -0.563000000    -5.284000000
H    -4.161000000     0.233000000    -5.186000000
O    -4.641000000    -0.756000000     1.072000000
H    -4.872000000    -1.544000000     1.564000000
H    -3.994000000    -1.054000000     0.433000000
O    -3.850000000    -7.283000000    -0.979000000
H    -3.510000000    -6.774000000    -1.715000000
H    -4.623000000    -7.725000000    -1.330000000
O    -3.379000000    -4.655000000    -2.249000000
H    -2.959000000    -4.024000000    -1.665000000
H    -4.280000000    -4.714000000    -1.931000000
O     4.100000000     4.309000000     3.491000000
H     4.688000000     3.955000000     4.158000000
H     4.414000000     5.200000000     3.343000000
O    -3.043000000     1.864000000     4.412000000
H    -2.224000000     1.382000000     4.534000000
H    -3.189000000     1.850000000     3.466000000
O     1.235000000     3.020000000     3.617000000
H     2.070000000     3.256000000     3.213000000
H     1.442000000     2.905000000     4.544000000
O    -0.076000000     5.275000000     4.801000000
H     0.250000000     4.617000000     4.187000000
H     0.149000000     4.929000000     5.664000000
O     3.301000000    -1.932000000    -2.367000000
H     3.310000000    -2.731000000    -1.840000000
H     2.403000000    -1.870000000    -2.694000000
O    -7.520000000     1.384000000     0.867000000
H    -6.727000000     0.913000000     0.609000000
H    -7.270000000     2.308000000     0.837000000
O     3.750000000    -0.834000000    -5.183000000
H     3.193000000    -0.724000000    -4.412000000
H     3.211000000    -0.527000000    -5.913000000
O     0.916000000    -1.494000000     3.692000000
H     1.808000000    -1.224000000     3.913000000
H     0.540000000    -0.736000000     3.245000000
O    -2.285000000    -2.313000000    -3.888000000
H    -2.760000000    -1.589000000    -4.297000000
H    -2.714000000    -2.432000000    -3.040000000
O    -2.864000000    -7.319000000    -3.522000000
H    -2.860000000    -8.205000000    -3.885000000
H    -1.967000000    -7.180000000    -3.219000000
O     3.898000000     0.647000000     5.583000000
H     4.287000000     1.513000000     5.466000000
H     4.007000000     0.218000000     4.735000000
O    -0.087000000    -3.912000000    -3.426000000
H    -0.919000000    -3.522000000    -3.694000000
H     0.536000000    -3.185000000    -3.443000000
O    -0.572000000     5.662000000     1.339000000
H    -0.826000000     6.463000000     1.798000000
H    -1.210000000     5.009000000     1.626000000
O    -2.836000000     4.285000000     1.960000000
H    -3.359000000     3.595000000     1.550000000
H    -3.313000000     4.504000000     2.760000000
O    -6.801000000    -3.374000000     1.636000000
H    -5.965000000    -3.799000000     1.443000000
H    -7.236000000    -3.306000000     0.786000000
O     0.955000000    -4.304000000     3.557000000
H     1.118000000    -3.362000000     3.590000000
H     0.114000000    -4.387000000     3.109000000
O     5.705000000     1.176000000    -2.010000000
H     4.809000000     0.850000000    -2.095000000
H     5.754000000     1.904000000    -2.630000000
O     4.268000000     4.522000000    -1.949000000
H     4.951000000     4.233000000    -1.343000000
H     4.394000000     3.981000000    -2.728000000
O    -3.125000000    -5.642000000     3.246000000
H    -2.316000000    -6.107000000     3.032000000
H    -3.347000000    -5.167000000     2.445000000
O     1.235000000     0.905000000    -2.735000000
H     0.750000000     0.634000000    -1.955000000
H     0.654000000     1.525000000    -3.175000000
O    -0.962000000    -6.905000000     2.128000000
H    -0.235000000    -6.318000000     2.337000000
H    -0.579000000    -7.564000000     1.549000000
O    -0.545000000     0.811000000     3.126000000
H    -0.759000000     0.881000000     2.196000000
H    -0.150000000     1.655000000     3.345000000
O     5.557000000    -3.145000000     0.013000000
H     5.924000000    -2.777000000    -0.790000000
H     4.674000000    -3.423000000    -0.232000000
