144
-2787.81818
O    -5.394000000    -1.406000000    -4.654000000
H    -4.609000000    -1.662000000    -4.170000000
H    -5.078000000    -1.209000000    -5.536000000
O     1.697000000     1.350000000    -4.420000000
H     1.513000000     0.416000000    -4.517000000
H     2.504000000     1.383000000    -3.907000000
O     6.092000000     2.441000000     1.478000000
H     5.459000000     1.827000000     1.850000000
H     6.591000000     1.919000000     0.850000000
O     0.371000000     6.968000000     1.969000000
H     1.266000000     6.682000000     1.789000000
H     0.135000000     7.508000000     1.214000000
O     4.141000000    -1.234000000    -4.990000000
H     4.641000000    -1.970000000    -5.342000000
H     3.682000000    -1.597000000    -4.232000000
O    -4.258000000    -6.626000000    -0.282000000
H    -4.158000000    -5.694000000    -0.478000000
H    -3.827000000    -6.740000000     0.565000000
O     3.279000000     2.791000000     5.464000000
H     3.763000000     2.033000000     5.135000000
H     3.956000000     3.437000000     5.668000000
O    -2.602000000    -3.522000000    -5.923000000
H    -1.928000000    -4.171000000    -5.721000000
H    -2.986000000    -3.824000000    -6.746000000
O     4.685000000    -0.750000000    -1.274000000
H     4.489000000     0.002000000    -1.833000000
H     5.356000000    -0.432000000    -0.671000000
O    -2.755000000     3.402000000     2.907000000
H    -3.569000000     3.111000000     3.318000000
H    -2.501000000     2.675000000     2.337000000
O    -1.174000000    -6.343000000    -0.614000000
H    -2.088000000    -6.621000000    -0.663000000
H    -1.217000000    -5.430000000    -0.329000000
O     4.954000000     0.229000000     2.503000000
H     4.662000000    -0.598000000     2.121000000
H     5.798000000     0.023000000     2.905000000
O     0.788000000    -8.535000000    -0.086000000
H     1.597000000    -8.044000000     0.059000000
H     0.093000000    -7.882000000    -0.007000000
O    -3.157000000    -7.299000000     2.095000000
H    -2.484000000    -6.784000000     2.539000000
H    -2.689000000    -8.060000000     1.751000000
O     0.503000000    -1.976000000     5.212000000
H     0.952000000    -2.650000000     4.702000000
H     1.208000000    -1.437000000     5.571000000
O    -3.398000000     0.114000000    -2.253000000
H    -2.583000000     0.190000000    -1.757000000
H    -3.277000000    -0.666000000    -2.794000000
O     2.838000000    -5.968000000     0.680000000
H     3.321000000    -5.811000000    -0.131000000
H     2.266000000    -5.206000000     0.769000000
O    -2.210000000     3.381000000    -1.822000000
H    -2.431000000     2.473000000    -1.615000000
H    -2.683000000     3.898000000    -1.170000000
O    -4.390000000    -1.313000000     5.616000000
H    -4.088000000    -2.165000000     5.928000000
H    -3.624000000    -0.928000000     5.190000000
O    -3.815000000    -4.239000000    -1.370000000
H    -4.287000000    -4.682000000    -2.076000000
H    -2.974000000    -3.999000000    -1.759000000
O    -3.497000000     0.442000000     2.752000000
H    -2.833000000    -0.114000000     3.161000000
H    -3.716000000     1.087000000     3.424000000
O    -3.694000000    -3.834000000     1.873000000
H    -4.579000000    -3.576000000     1.613000000
H    -3.129000000    -3.471000000     1.191000000
O    -3.834000000     4.971000000    -0.274000000
H    -4.018000000     5.183000000     0.641000000
H    -4.274000000     5.660000000    -0.773000000
O     1.363000000    -3.751000000     1.113000000
H     1.716000000    -2.958000000     0.712000000
H     0.481000000    -3.831000000     0.752000000
O     1.862000000     4.732000000    -2.519000000
H     2.572000000     5.364000000    -2.632000000
H     1.713000000     4.705000000    -1.574000000
O     1.787000000    -4.131000000     3.901000000
H     2.703000000    -4.408000000     3.883000000
H     1.507000000    -4.171000000     2.986000000
O     3.714000000     1.712000000    -2.498000000
H     4.495000000     1.986000000    -2.979000000
H     3.594000000     2.389000000    -1.831000000
O    -4.830000000     0.913000000     0.362000000
H    -4.239000000     0.932000000     1.114000000
H    -5.632000000     1.330000000     0.676000000
O    -0.907000000    -5.780000000     2.335000000
H    -0.655000000    -5.142000000     3.003000000
H    -1.198000000    -5.248000000     1.594000000
O    -1.656000000     0.039000000    -5.939000000
H    -1.462000000    -0.895000000    -5.853000000
H    -1.403000000     0.415000000    -5.096000000
O    -0.396000000    -7.569000000    -3.367000000
H    -0.908000000    -7.691000000    -2.568000000
H     0.112000000    -6.773000000    -3.207000000
O     1.384000000     4.007000000    -5.626000000
H     1.461000000     3.053000000    -5.616000000
H     1.483000000     4.265000000    -4.710000000
O     2.616000000    -1.743000000    -0.130000000
H     2.066000000    -0.959000000    -0.153000000
H     3.479000000    -1.438000000    -0.409000000
O     0.040000000     4.804000000     4.075000000
H     0.771000000     5.171000000     3.578000000
H    -0.614000000     4.584000000     3.411000000
O     4.364000000     4.005000000    -0.435000000
H     5.120000000     4.518000000    -0.721000000
H     4.717000000     3.405000000     0.222000000
O     0.417000000     3.279000000     6.144000000
H     1.315000000     3.289000000     5.812000000
H    -0.018000000     3.995000000     5.680000000
O    -0.718000000    -5.128000000    -5.111000000
H     0.074000000    -5.140000000    -5.648000000
H    -0.398000000    -5.038000000    -4.214000000
O    -2.819000000    -2.103000000    -3.650000000
H    -2.446000000    -2.406000000    -4.478000000
H    -2.271000000    -2.509000000    -2.978000000
O    -2.277000000    -3.811000000     5.308000000
H    -1.363000000    -3.945000000     5.559000000
H    -2.242000000    -3.146000000     4.620000000
O    -5.230000000    -2.003000000    -1.123000000
H    -4.542000000    -1.340000000    -1.063000000
H    -4.769000000    -2.836000000    -1.026000000
O     2.475000000    -2.406000000    -3.011000000
H     2.868000000    -3.251000000    -3.230000000
H     2.262000000    -2.475000000    -2.080000000
O     0.887000000    -1.117000000    -4.979000000
H     0.786000000    -1.489000000    -5.855000000
H     1.461000000    -1.732000000    -4.522000000
O     3.115000000     5.913000000     1.172000000
H     3.910000000     6.376000000     1.436000000
H     3.409000000     5.291000000     0.507000000
O     1.192000000     0.591000000     6.097000000
H     1.059000000     1.538000000     6.144000000
H     2.055000000     0.490000000     5.696000000
O     0.397000000    -5.016000000    -2.573000000
H    -0.251000000    -4.421000000    -2.195000000
H     1.123000000    -5.006000000    -1.950000000
O    -1.162000000     1.398000000    -3.681000000
H    -1.587000000     2.156000000    -3.280000000
H    -0.226000000     1.591000000    -3.625000000
O    -1.674000000    -0.340000000     4.574000000
H    -1.352000000     0.426000000     5.049000000
H    -0.914000000    -0.919000000     4.509000000
O    -4.658000000    -5.067000000    -3.876000000
H    -4.185000000    -4.312000000    -4.226000000
H    -4.582000000    -5.735000000    -4.557000000
