144
-2801.82297
O    -2.163000000    -4.562000000    -5.231000000
H    -2.911000000    -3.975000000    -5.126000000
H    -2.457000000    -5.213000000    -5.868000000
O     2.286000000    -3.514000000    -3.938000000
H     2.391000000    -4.453000000    -4.092000000
H     1.438000000    -3.301000000    -4.328000000
O    -1.170000000    -1.169000000     4.762000000
H    -1.667000000    -1.908000000     5.112000000
H    -0.319000000    -1.542000000     4.528000000
O    -6.055000000     4.014000000    -1.138000000
H    -5.481000000     3.421000000    -0.654000000
H    -6.787000000     4.178000000    -0.543000000
O    -2.548000000     1.106000000     4.155000000
H    -3.058000000     0.942000000     4.949000000
H    -1.901000000     0.401000000     4.137000000
O     2.703000000     2.607000000    -2.448000000
H     1.993000000     2.206000000    -1.947000000
H     2.891000000     1.978000000    -3.144000000
O    -3.635000000    -2.425000000    -4.623000000
H    -4.490000000    -1.996000000    -4.603000000
H    -3.024000000    -1.756000000    -4.314000000
O     3.667000000     5.416000000     0.460000000
H     4.302000000     5.542000000    -0.246000000
H     3.988000000     4.650000000     0.937000000
O     0.309000000    -3.721000000     6.399000000
H     0.614000000    -3.376000000     5.560000000
H     0.629000000    -3.092000000     7.047000000
O    -1.775000000    -4.454000000    -0.815000000
H    -1.480000000    -3.798000000    -0.184000000
H    -2.479000000    -4.921000000    -0.365000000
O    -4.370000000     0.791000000     2.186000000
H    -3.749000000     1.121000000     2.835000000
H    -5.230000000     0.934000000     2.582000000
O     3.895000000    -1.609000000    -4.661000000
H     4.108000000    -2.063000000    -5.475000000
H     3.319000000    -2.214000000    -4.192000000
O    -0.319000000     2.806000000    -4.631000000
H    -0.766000000     2.765000000    -5.477000000
H     0.175000000     3.625000000    -4.661000000
O     5.734000000     0.789000000    -1.733000000
H     6.108000000     1.658000000    -1.586000000
H     5.950000000     0.586000000    -2.643000000
O    -5.867000000    -4.476000000    -1.001000000
H    -5.276000000    -5.119000000    -0.609000000
H    -5.292000000    -3.770000000    -1.295000000
O    -4.675000000    -2.222000000    -1.735000000
H    -4.406000000    -2.766000000    -2.476000000
H    -4.185000000    -1.407000000    -1.846000000
O    -2.705000000     2.605000000    -2.969000000
H    -1.785000000     2.617000000    -3.233000000
H    -2.882000000     1.689000000    -2.758000000
O    -5.065000000     1.314000000    -5.330000000
H    -4.141000000     1.221000000    -5.560000000
H    -5.341000000     0.431000000    -5.083000000
O    -4.667000000    -1.785000000     1.065000000
H    -4.723000000    -1.728000000     0.111000000
H    -4.539000000    -0.880000000     1.352000000
O    -5.711000000     0.730000000    -1.798000000
H    -5.603000000     1.677000000    -1.890000000
H    -4.838000000     0.372000000    -1.959000000
O    -2.909000000    -3.869000000     1.606000000
H    -3.753000000    -4.221000000     1.888000000
H    -3.091000000    -2.954000000     1.391000000
O    -1.667000000    -6.075000000    -2.938000000
H    -1.621000000    -5.454000000    -2.212000000
H    -1.824000000    -5.531000000    -3.709000000
O     5.554000000    -3.898000000    -2.807000000
H     5.269000000    -3.139000000    -2.298000000
H     5.891000000    -3.527000000    -3.623000000
O    -2.671000000     1.141000000    -6.606000000
H    -1.731000000     1.011000000    -6.731000000
H    -3.076000000     0.382000000    -7.026000000
O    -2.732000000     3.405000000     2.287000000
H    -2.387000000     2.842000000     2.980000000
H    -2.192000000     4.194000000     2.327000000
O    -4.550000000     4.044000000    -4.979000000
H    -4.712000000     3.102000000    -5.019000000
H    -3.744000000     4.127000000    -4.468000000
O    -6.171000000    -1.197000000    -4.544000000
H    -6.863000000    -1.436000000    -5.160000000
H    -6.624000000    -0.722000000    -3.847000000
O     2.522000000    -4.183000000     0.176000000
H     2.934000000    -4.011000000     1.022000000
H     2.494000000    -3.329000000    -0.255000000
O     3.675000000    -3.144000000     2.567000000
H     3.725000000    -3.784000000     3.277000000
H     4.338000000    -2.490000000     2.785000000
O     3.302000000    -1.048000000     5.534000000
H     3.082000000    -1.979000000     5.543000000
H     4.018000000    -0.977000000     4.903000000
O     5.765000000     4.048000000     2.490000000
H     6.611000000     4.496000000     2.491000000
H     5.981000000     3.129000000     2.332000000
O     5.907000000    -0.588000000     3.639000000
H     6.480000000    -1.056000000     3.032000000
H     6.504000000    -0.186000000     4.270000000
O    -7.660000000    -1.774000000    -0.827000000
H    -8.116000000    -1.951000000    -1.650000000
H    -6.760000000    -1.582000000    -1.089000000
O    -8.128000000     0.653000000    -2.762000000
H    -8.002000000     1.376000000    -3.377000000
H    -7.349000000     0.674000000    -2.205000000
O     1.499000000    -6.135000000    -1.317000000
H     1.002000000    -5.634000000    -1.964000000
H     1.999000000    -5.476000000    -0.836000000
O     2.756000000     0.870000000    -4.455000000
H     3.239000000     0.044000000    -4.406000000
H     1.882000000     0.618000000    -4.752000000
O    -4.303000000     2.726000000     0.068000000
H    -4.315000000     1.997000000     0.689000000
H    -3.973000000     3.467000000     0.575000000
O    -0.436000000     3.653000000    -0.825000000
H    -1.320000000     3.923000000    -0.577000000
H    -0.442000000     2.700000000    -0.731000000
O     6.979000000    -0.675000000     0.808000000
H     6.128000000    -0.443000000     0.436000000
H     7.598000000    -0.088000000     0.373000000
O    -0.137000000    -2.844000000    -4.823000000
H    -0.513000000    -2.231000000    -4.191000000
H    -0.892000000    -3.309000000    -5.183000000
O    -0.057000000    -1.511000000    -7.477000000
H    -0.135000000    -0.585000000    -7.248000000
H     0.085000000    -1.954000000    -6.640000000
O     4.836000000     4.182000000     5.105000000
H     4.945000000     4.036000000     4.166000000
H     3.940000000     3.901000000     5.289000000
O     2.796000000     2.472000000     5.303000000
H     2.893000000     1.555000000     5.560000000
H     2.298000000     2.870000000     6.017000000
O    -2.009000000     2.853000000     6.376000000
H    -2.031000000     2.398000000     5.534000000
H    -1.851000000     2.162000000     7.018000000
O     4.504000000    -1.758000000    -1.505000000
H     3.880000000    -1.790000000    -2.230000000
H     4.802000000    -0.848000000    -1.486000000
O     0.104000000     0.036000000    -5.037000000
H    -0.494000000    -0.473000000    -4.490000000
H    -0.119000000     0.948000000    -4.852000000
O     1.063000000    -3.031000000     3.573000000
H     1.862000000    -2.857000000     3.076000000
H     0.547000000    -3.602000000     3.004000000
O    -3.354000000     5.205000000    -1.773000000
H    -4.197000000     5.045000000    -1.350000000
H    -3.048000000     4.336000000    -2.034000000
