144
-2805.03614
O    -2.994000000    -4.413000000    -6.113000000
H    -3.307000000    -4.323000000    -7.013000000
H    -3.284000000    -5.285000000    -5.845000000
O     2.586000000     4.232000000     3.642000000
H     2.376000000     3.439000000     4.136000000
H     3.297000000     3.970000000     3.058000000
O     0.427000000    -5.256000000    -4.652000000
H     0.113000000    -5.742000000    -5.413000000
H    -0.084000000    -4.446000000    -4.657000000
O    -1.455000000    -1.387000000     4.427000000
H    -0.919000000    -1.316000000     5.217000000
H    -0.834000000    -1.612000000     3.735000000
O    -3.000000000     1.141000000     4.677000000
H    -3.677000000     0.977000000     5.333000000
H    -2.566000000     0.295000000     4.564000000
O    -4.216000000    -0.413000000    -4.321000000
H    -4.797000000    -0.202000000    -3.590000000
H    -3.392000000    -0.668000000    -3.906000000
O     4.547000000     5.557000000    -0.604000000
H     5.182000000     6.252000000    -0.430000000
H     5.061000000     4.860000000    -1.012000000
O    -0.359000000    -3.712000000    -0.572000000
H     0.382000000    -4.154000000    -0.157000000
H    -0.342000000    -2.826000000    -0.209000000
O     0.828000000     5.773000000     2.469000000
H     1.520000000     5.245000000     2.867000000
H     1.116000000     5.904000000     1.565000000
O    -4.980000000     0.786000000     2.064000000
H    -5.069000000     0.570000000     2.992000000
H    -5.852000000     0.638000000     1.698000000
O     1.573000000    -2.639000000    -5.826000000
H     1.879000000    -3.546000000    -5.828000000
H     0.640000000    -2.701000000    -5.618000000
O    -1.613000000     2.363000000    -3.067000000
H    -2.364000000     2.053000000    -2.562000000
H    -1.403000000     3.215000000    -2.685000000
O     3.706000000    -0.940000000    -2.595000000
H     4.280000000    -0.963000000    -3.361000000
H     2.948000000    -0.429000000    -2.879000000
O    -4.325000000    -5.338000000     1.891000000
H    -3.854000000    -4.531000000     2.095000000
H    -5.238000000    -5.143000000     2.104000000
O    -5.270000000    -3.515000000    -1.941000000
H    -5.474000000    -3.411000000    -2.871000000
H    -4.574000000    -2.879000000    -1.776000000
O    -0.160000000     3.612000000     0.654000000
H    -1.042000000     3.242000000     0.604000000
H     0.045000000     3.618000000     1.589000000
O    -2.457000000     6.023000000     0.440000000
H    -2.607000000     5.091000000     0.283000000
H    -2.435000000     6.105000000     1.393000000
O    -6.935000000    -2.455000000     0.094000000
H    -6.581000000    -2.974000000    -0.629000000
H    -7.525000000    -1.830000000    -0.327000000
O    -4.717000000     0.664000000    -1.912000000
H    -4.246000000     1.392000000    -1.506000000
H    -4.179000000    -0.105000000    -1.723000000
O    -4.101000000    -2.374000000     1.099000000
H    -4.977000000    -2.601000000     0.786000000
H    -3.624000000    -2.116000000     0.310000000
O    -2.060000000    -4.829000000    -2.669000000
H    -1.661000000    -4.251000000    -2.018000000
H    -2.308000000    -4.246000000    -3.386000000
O    -4.356000000     0.158000000    -7.341000000
H    -3.774000000     0.171000000    -6.581000000
H    -4.200000000    -0.693000000    -7.748000000
O    -2.670000000     3.074000000     2.750000000
H    -2.873000000     2.313000000     3.293000000
H    -3.345000000     3.715000000     2.972000000
O    -3.664000000    -2.626000000     3.764000000
H    -3.809000000    -2.522000000     2.823000000
H    -2.779000000    -2.292000000     3.908000000
O     2.689000000    -3.112000000     1.278000000
H     3.310000000    -2.527000000     0.844000000
H     2.922000000    -3.985000000     0.964000000
O     1.577000000     5.195000000    -3.308000000
H     2.322000000     5.789000000    -3.396000000
H     1.892000000     4.502000000    -2.727000000
O     2.252000000    -0.534000000     4.905000000
H     1.754000000    -1.036000000     4.260000000
H     3.013000000    -1.081000000     5.100000000
O     2.014000000     5.766000000    -0.027000000
H     1.617000000     4.911000000    -0.196000000
H     2.941000000     5.645000000    -0.232000000
O     5.086000000     3.489000000     2.399000000
H     5.470000000     3.971000000     3.132000000
H     5.755000000     3.522000000     1.715000000
O    -3.869000000    -6.790000000    -1.668000000
H    -3.491000000    -6.869000000    -0.792000000
H    -3.387000000    -6.068000000    -2.072000000
O     4.379000000    -2.124000000     4.915000000
H     5.128000000    -2.131000000     4.319000000
H     3.870000000    -2.896000000     4.668000000
O     4.368000000     1.340000000    -5.186000000
H     5.012000000     0.639000000    -5.088000000
H     3.524000000     0.889000000    -5.200000000
O     1.998000000    -0.210000000    -5.028000000
H     1.896000000    -1.083000000    -5.405000000
H     1.110000000     0.050000000    -4.780000000
O    -3.632000000     2.452000000     0.280000000
H    -3.890000000     1.570000000     0.549000000
H    -3.170000000     2.808000000     1.038000000
O     1.316000000     2.734000000    -1.620000000
H     0.827000000     3.025000000    -0.851000000
H     1.150000000     1.792000000    -1.667000000
O    -5.569000000    -3.105000000    -4.631000000
H    -5.077000000    -2.362000000    -4.980000000
H    -5.284000000    -3.850000000    -5.161000000
O     5.149000000    -1.440000000    -0.070000000
H     4.892000000    -1.149000000    -0.945000000
H     5.640000000    -0.703000000     0.293000000
O    -1.101000000    -2.813000000    -5.072000000
H    -1.550000000    -2.361000000    -4.358000000
H    -1.799000000    -3.264000000    -5.546000000
O    -0.825000000    -1.166000000    -7.510000000
H    -1.046000000    -0.294000000    -7.183000000
H    -0.403000000    -1.600000000    -6.769000000
O     5.110000000     2.522000000     5.116000000
H     5.274000000     2.138000000     4.255000000
H     4.159000000     2.480000000     5.219000000
O    -1.313000000     1.441000000    -6.953000000
H    -1.083000000     1.256000000    -6.043000000
H    -0.990000000     2.329000000    -7.106000000
O     2.069000000     2.226000000     5.647000000
H     2.022000000     2.291000000     6.601000000
H     1.907000000     1.301000000     5.462000000
O    -1.862000000    -6.060000000     0.604000000
H    -1.659000000    -5.145000000     0.411000000
H    -2.376000000    -6.027000000     1.410000000
O     3.686000000    -3.446000000    -1.725000000
H     4.185000000    -3.318000000    -0.919000000
H     3.392000000    -2.568000000    -1.967000000
O     7.149000000     0.729000000     0.407000000
H     7.247000000     1.052000000     1.303000000
H     7.711000000     1.301000000    -0.116000000
O    -0.716000000     0.330000000    -4.462000000
H    -1.050000000    -0.388000000    -3.924000000
H    -0.962000000     1.122000000    -3.984000000
O     0.812000000    -2.090000000     3.251000000
H     1.274000000    -2.090000000     2.413000000
H     0.443000000    -2.970000000     3.322000000
O    -4.919000000     4.335000000    -1.387000000
H    -5.787000000     4.192000000    -1.009000000
H    -4.345000000     3.743000000    -0.900000000
