144
-2801.82176
O    -1.404000000    -1.363000000    -6.831000000
H    -1.769000000    -0.529000000    -7.125000000
H    -2.086000000    -1.740000000    -6.275000000
O     6.163000000     1.260000000    -1.846000000
H     6.916000000     1.063000000    -2.404000000
H     5.449000000     0.743000000    -2.217000000
O     6.588000000    -3.504000000     1.886000000
H     7.222000000    -3.213000000     2.542000000
H     5.784000000    -3.036000000     2.107000000
O    -2.081000000    -3.261000000     2.157000000
H    -1.400000000    -2.726000000     2.564000000
H    -1.601000000    -3.945000000     1.689000000
O    -7.469000000    -4.569000000    -2.472000000
H    -6.793000000    -4.204000000    -1.900000000
H    -7.680000000    -5.417000000    -2.081000000
O     1.108000000     1.124000000     5.799000000
H     1.629000000     1.511000000     6.503000000
H     1.002000000     0.208000000     6.057000000
O    -5.184000000    -5.172000000    -0.077000000
H    -5.047000000    -4.275000000    -0.383000000
H    -4.814000000    -5.720000000    -0.769000000
O     6.097000000     4.014000000    -1.558000000
H     6.119000000     3.083000000    -1.778000000
H     5.181000000     4.188000000    -1.343000000
O    -0.298000000     2.747000000    -2.044000000
H    -0.335000000     1.962000000    -2.590000000
H    -1.214000000     2.956000000    -1.864000000
O     1.792000000     0.973000000    -3.688000000
H     2.473000000     0.900000000    -3.019000000
H     2.201000000     0.633000000    -4.484000000
O    -5.850000000     1.817000000    -3.438000000
H    -6.316000000     2.630000000    -3.246000000
H    -6.497000000     1.128000000    -3.283000000
O    -0.766000000     3.362000000     5.168000000
H    -1.290000000     2.667000000     4.771000000
H    -0.095000000     2.900000000     5.670000000
O     1.033000000     3.932000000     0.124000000
H     0.343000000     4.595000000     0.083000000
H     0.786000000     3.288000000    -0.539000000
O     1.861000000     4.510000000     2.876000000
H     1.269000000     3.875000000     3.280000000
H     1.581000000     4.550000000     1.962000000
O    -0.953000000     0.962000000    -4.223000000
H    -1.355000000     0.119000000    -4.013000000
H    -0.011000000     0.798000000    -4.169000000
O     3.423000000     4.119000000    -1.123000000
H     2.551000000     4.021000000    -0.740000000
H     3.365000000     4.915000000    -1.650000000
O     5.380000000    -0.603000000     0.463000000
H     5.645000000     0.238000000     0.090000000
H     4.822000000    -0.996000000    -0.209000000
O     6.579000000     4.050000000     3.670000000
H     6.067000000     4.705000000     4.145000000
H     6.119000000     3.946000000     2.837000000
O    -5.046000000     1.298000000    -0.522000000
H    -4.303000000     0.701000000    -0.437000000
H    -4.804000000     1.881000000    -1.242000000
O     0.905000000    -4.054000000     3.951000000
H     0.749000000    -3.235000000     4.420000000
H     1.169000000    -3.780000000     3.072000000
O    -8.583000000    -2.034000000    -2.544000000
H    -7.970000000    -1.817000000    -1.842000000
H    -8.311000000    -2.902000000    -2.841000000
O    -0.209000000    -4.895000000    -0.035000000
H    -0.548000000    -4.742000000    -0.917000000
H    -0.365000000    -5.826000000     0.124000000
O    -0.773000000    -3.808000000    -2.670000000
H    -1.250000000    -2.993000000    -2.821000000
H    -1.036000000    -4.377000000    -3.394000000
O    -3.397000000    -2.548000000    -4.999000000
H    -4.235000000    -2.099000000    -4.892000000
H    -2.874000000    -2.264000000    -4.249000000
O     3.530000000    -2.936000000     4.540000000
H     3.646000000    -2.560000000     3.667000000
H     2.798000000    -3.546000000     4.443000000
O    -5.691000000    -0.982000000    -5.306000000
H    -6.523000000    -0.592000000    -5.575000000
H    -5.375000000    -0.413000000    -4.605000000
O     4.304000000     3.855000000     1.702000000
H     4.204000000     3.550000000     0.800000000
H     3.410000000     4.040000000     1.992000000
O    -3.776000000     3.790000000    -4.074000000
H    -4.078000000     4.479000000    -3.482000000
H    -4.049000000     2.975000000    -3.652000000
O     4.372000000    -1.642000000    -1.626000000
H     5.242000000    -1.796000000    -1.994000000
H     3.958000000    -2.505000000    -1.620000000
O     3.991000000    -2.273000000     2.018000000
H     4.509000000    -1.577000000     1.613000000
H     3.092000000    -2.096000000     1.741000000
O     6.394000000    -0.310000000     4.182000000
H     6.897000000     0.477000000     3.970000000
H     5.496000000     0.002000000     4.291000000
O    -2.671000000     3.666000000    -1.108000000
H    -2.461000000     3.967000000    -0.224000000
H    -3.606000000     3.844000000    -1.206000000
O     2.997000000    -2.541000000    -5.279000000
H     2.917000000    -3.347000000    -4.770000000
H     3.933000000    -2.344000000    -5.271000000
O     3.790000000    -4.889000000     2.312000000
H     3.919000000    -3.955000000     2.144000000
H     3.892000000    -5.303000000     1.455000000
O    -1.583000000     4.848000000     1.470000000
H    -2.441000000     4.836000000     1.894000000
H    -1.178000000     5.661000000     1.771000000
O     1.328000000    -2.995000000     1.458000000
H     1.040000000    -3.663000000     0.836000000
H     0.939000000    -2.183000000     1.134000000
O     2.941000000    -4.069000000    -1.310000000
H     2.055000000    -4.086000000    -1.671000000
H     3.276000000    -4.954000000    -1.457000000
O    -4.897000000    -0.702000000     2.953000000
H    -4.717000000    -1.241000000     2.182000000
H    -4.620000000    -1.243000000     3.692000000
O    -3.963000000     2.223000000     2.717000000
H    -4.701000000     1.614000000     2.735000000
H    -4.204000000     2.873000000     2.058000000
O    -4.343000000    -2.327000000     0.884000000
H    -3.928000000    -1.784000000     0.214000000
H    -3.648000000    -2.912000000     1.184000000
O    -7.082000000     1.329000000     1.622000000
H    -7.472000000     0.455000000     1.609000000
H    -6.461000000     1.325000000     0.895000000
O    -2.648000000     1.211000000    -6.825000000
H    -2.384000000     0.919000000    -5.953000000
H    -2.874000000     2.134000000    -6.711000000
O    -4.575000000    -3.271000000    -2.303000000
H    -4.770000000    -3.308000000    -3.239000000
H    -4.264000000    -2.378000000    -2.158000000
O     3.783000000     0.555000000     4.990000000
H     3.726000000     0.596000000     5.945000000
H     2.903000000     0.779000000     4.688000000
O    -2.040000000     1.073000000     4.492000000
H    -2.552000000     1.052000000     5.300000000
H    -2.673000000     1.308000000     3.813000000
O    -2.338000000    -5.226000000    -5.095000000
H    -2.439000000    -5.507000000    -6.004000000
H    -2.728000000    -4.352000000    -5.069000000
O    -6.680000000    -1.199000000    -0.682000000
H    -6.162000000    -1.904000000    -0.292000000
H    -6.098000000    -0.439000000    -0.670000000
O    -0.271000000    -1.034000000     3.952000000
H    -0.146000000    -0.531000000     3.147000000
H    -0.624000000    -0.401000000     4.577000000
