144
-2819.49674
O    -1.089000000    -0.882000000    -6.398000000
H    -1.463000000    -0.043000000    -6.668000000
H    -1.455000000    -1.517000000    -7.014000000
O     5.311000000     0.871000000    -1.082000000
H     6.260000000     0.875000000    -0.956000000
H     5.131000000     0.040000000    -1.522000000
O    -3.123000000     3.827000000    -3.014000000
H    -3.335000000     4.758000000    -3.082000000
H    -3.115000000     3.651000000    -2.073000000
O    -1.033000000    -2.732000000     2.902000000
H    -1.204000000    -1.959000000     3.440000000
H    -0.090000000    -2.876000000     2.981000000
O    -5.620000000    -1.501000000    -2.736000000
H    -6.118000000    -0.769000000    -3.100000000
H    -4.849000000    -1.093000000    -2.343000000
O    -4.636000000    -2.131000000    -7.134000000
H    -4.281000000    -2.386000000    -6.282000000
H    -5.579000000    -2.267000000    -7.051000000
O     1.831000000     1.409000000     6.170000000
H     1.545000000     0.755000000     6.809000000
H     2.341000000     0.911000000     5.531000000
O    -2.311000000    -3.903000000    -1.270000000
H    -2.799000000    -3.548000000    -0.527000000
H    -1.942000000    -3.134000000    -1.703000000
O     4.084000000     3.261000000    -1.513000000
H     4.478000000     2.416000000    -1.296000000
H     3.596000000     3.098000000    -2.320000000
O     0.560000000     3.300000000    -1.311000000
H     1.143000000     2.574000000    -1.091000000
H    -0.228000000     3.142000000    -0.791000000
O    -2.936000000    -6.724000000    -2.440000000
H    -2.889000000    -5.769000000    -2.386000000
H    -3.806000000    -6.940000000    -2.105000000
O    -0.757000000     2.626000000     4.776000000
H    -1.260000000     1.843000000     5.002000000
H    -0.038000000     2.639000000     5.407000000
O    -1.071000000     1.768000000    -4.153000000
H    -1.627000000     1.044000000    -4.440000000
H    -1.652000000     2.325000000    -3.635000000
O     2.650000000     5.089000000     0.378000000
H     2.160000000     4.604000000    -0.286000000
H     3.538000000     4.734000000     0.326000000
O     5.605000000     0.228000000     1.947000000
H     6.431000000    -0.144000000     1.637000000
H     5.281000000     0.739000000     1.205000000
O     7.231000000     2.278000000     3.395000000
H     6.585000000     1.669000000     3.037000000
H     6.709000000     2.950000000     3.833000000
O    -5.027000000     0.860000000     0.248000000
H    -4.663000000     0.604000000    -0.599000000
H    -4.698000000     1.748000000     0.392000000
O     1.898000000    -2.302000000     3.755000000
H     2.478000000    -2.283000000     2.994000000
H     2.322000000    -2.908000000     4.363000000
O     3.058000000     3.668000000     7.086000000
H     3.119000000     3.451000000     8.017000000
H     2.666000000     2.892000000     6.685000000
O     0.475000000    -4.497000000    -0.700000000
H    -0.274000000    -4.415000000    -1.290000000
H     0.505000000    -5.428000000    -0.479000000
O    -4.900000000    -2.494000000     3.568000000
H    -4.448000000    -1.651000000     3.578000000
H    -5.296000000    -2.563000000     4.437000000
O    -3.512000000    -3.285000000    -4.990000000
H    -3.153000000    -2.860000000    -4.210000000
H    -2.743000000    -3.513000000    -5.513000000
O    -3.230000000    -0.047000000    -4.831000000
H    -3.753000000     0.554000000    -4.300000000
H    -2.865000000    -0.667000000    -4.200000000
O     1.586000000     1.382000000    -5.161000000
H     1.754000000     0.571000000    -5.641000000
H     0.676000000     1.306000000    -4.874000000
O     4.906000000     4.752000000     1.793000000
H     4.023000000     4.448000000     2.002000000
H     5.134000000     5.339000000     2.513000000
O    -5.873000000    -4.344000000    -3.022000000
H    -5.842000000    -3.433000000    -2.732000000
H    -5.209000000    -4.400000000    -3.710000000
O    -7.067000000    -0.496000000     2.956000000
H    -6.657000000    -1.361000000     2.933000000
H    -7.043000000    -0.196000000     2.047000000
O     3.696000000     3.101000000    -4.108000000
H     4.167000000     3.496000000    -4.842000000
H     3.126000000     2.448000000    -4.514000000
O     4.203000000    -1.396000000    -1.802000000
H     4.804000000    -2.141000000    -1.795000000
H     3.332000000    -1.791000000    -1.850000000
O     4.357000000    -1.590000000     6.162000000
H     4.202000000    -2.481000000     5.849000000
H     3.812000000    -1.040000000     5.598000000
O    -2.229000000     0.518000000     5.479000000
H    -2.778000000     0.368000000     6.249000000
H    -2.818000000     0.385000000     4.736000000
O     1.651000000    -1.210000000    -6.373000000
H     1.815000000    -1.853000000    -5.683000000
H     0.842000000    -1.507000000    -6.790000000
O    -3.788000000     3.547000000     0.117000000
H    -3.379000000     3.669000000     0.974000000
H    -4.429000000     4.255000000     0.054000000
O    -0.329000000    -2.622000000    -4.568000000
H    -0.422000000    -1.960000000    -5.253000000
H    -0.668000000    -2.199000000    -3.779000000
O    -2.265000000     3.350000000     2.319000000
H    -2.857000000     2.931000000     2.944000000
H    -1.436000000     3.430000000     2.791000000
O     3.422000000    -3.740000000     1.612000000
H     3.459000000    -4.692000000     1.698000000
H     3.222000000    -3.590000000     0.688000000
O    -0.200000000    -5.098000000    -6.002000000
H     0.190000000    -5.970000000    -5.929000000
H     0.058000000    -4.652000000    -5.195000000
O     2.494000000    -3.384000000    -2.051000000
H     3.142000000    -4.056000000    -2.262000000
H     1.764000000    -3.867000000    -1.664000000
O    -3.869000000     0.232000000     3.141000000
H    -4.158000000     1.107000000     3.400000000
H    -3.986000000     0.212000000     2.192000000
O    -3.483000000    -2.943000000     1.086000000
H    -4.043000000    -3.070000000     1.851000000
H    -2.592000000    -2.994000000     1.430000000
O    -5.058000000     1.510000000    -3.002000000
H    -4.747000000     2.376000000    -2.737000000
H    -4.407000000     0.903000000    -2.649000000
O     3.258000000    -2.568000000    -4.624000000
H     2.708000000    -2.696000000    -3.851000000
H     3.593000000    -3.442000000    -4.827000000
O    -5.761000000    -2.696000000    -0.313000000
H    -5.680000000    -2.302000000    -1.181000000
H    -4.865000000    -2.723000000     0.022000000
O     4.537000000    -0.373000000    -5.117000000
H     4.432000000    -0.518000000    -6.058000000
H     3.844000000    -0.896000000    -4.715000000
O     3.759000000     0.358000000     4.294000000
H     3.992000000     0.112000000     3.399000000
H     4.128000000     1.234000000     4.405000000
O    -5.034000000     2.807000000     3.684000000
H    -5.390000000     2.519000000     4.524000000
H    -5.655000000     3.467000000     3.375000000
O    -7.389000000    -0.440000000    -0.073000000
H    -6.923000000    -1.273000000    -0.149000000
H    -6.702000000     0.224000000    -0.124000000
O     0.049000000    -1.322000000     5.983000000
H     0.644000000    -1.264000000     5.236000000
H    -0.651000000    -0.701000000     5.781000000
