144
-2848.11173
O    -0.085000000    -3.297000000    -4.793000000
H    -0.249000000    -4.150000000    -4.391000000
H     0.869000000    -3.212000000    -4.794000000
O     3.758000000     1.221000000    -4.801000000
H     4.275000000     0.668000000    -4.215000000
H     2.850000000     1.058000000    -4.546000000
O     1.498000000     4.943000000    -2.516000000
H     1.117000000     5.251000000    -3.338000000
H     1.299000000     4.007000000    -2.495000000
O    -1.155000000    -5.070000000     6.994000000
H    -0.309000000    -5.011000000     7.437000000
H    -0.976000000    -4.792000000     6.096000000
O     5.017000000     0.263000000    -2.461000000
H     5.014000000     1.110000000    -2.015000000
H     4.874000000    -0.377000000    -1.763000000
O    -4.118000000    -0.243000000     2.848000000
H    -4.893000000    -0.680000000     3.200000000
H    -3.833000000    -0.803000000     2.127000000
O     4.798000000     3.645000000    -4.031000000
H     4.398000000     2.881000000    -4.446000000
H     4.485000000     3.618000000    -3.126000000
O    -2.354000000    -2.063000000    -4.889000000
H    -2.665000000    -2.188000000    -3.992000000
H    -1.476000000    -2.443000000    -4.894000000
O    -3.027000000    -0.592000000    -0.873000000
H    -2.817000000    -1.223000000    -1.562000000
H    -2.187000000    -0.407000000    -0.454000000
O     2.683000000    -3.082000000     3.441000000
H     3.066000000    -3.791000000     3.957000000
H     2.824000000    -3.344000000     2.531000000
O     2.153000000    -0.682000000     4.736000000
H     2.214000000    -0.017000000     4.050000000
H     2.322000000    -1.509000000     4.283000000
O    -2.015000000    -0.254000000     6.164000000
H    -2.282000000     0.299000000     5.430000000
H    -2.834000000    -0.483000000     6.603000000
O     1.946000000     0.643000000    -7.832000000
H     2.665000000     0.962000000    -8.378000000
H     1.268000000     0.384000000    -8.456000000
O    -0.750000000    -6.464000000     0.289000000
H    -0.084000000    -6.158000000     0.905000000
H    -0.606000000    -5.940000000    -0.499000000
O     1.327000000     3.772000000     2.827000000
H     1.900000000     4.127000000     2.147000000
H     0.456000000     4.097000000     2.599000000
O    -4.267000000    -2.254000000     0.810000000
H    -3.870000000    -1.713000000     0.128000000
H    -5.006000000    -2.682000000     0.377000000
O     1.866000000    -5.468000000    -1.391000000
H     1.681000000    -5.825000000    -0.522000000
H     2.749000000    -5.776000000    -1.594000000
O     3.096000000    -2.801000000    -3.110000000
H     2.953000000    -3.572000000    -3.659000000
H     2.666000000    -2.088000000    -3.583000000
O    -4.981000000    -3.572000000     4.611000000
H    -5.772000000    -4.091000000     4.759000000
H    -5.276000000    -2.664000000     4.671000000
O     2.198000000    -1.089000000    -4.954000000
H     1.632000000    -0.458000000    -4.509000000
H     2.541000000    -0.612000000    -5.709000000
O     0.442000000     2.454000000    -5.711000000
H     0.911000000     1.882000000    -6.318000000
H     0.828000000     2.263000000    -4.856000000
O     4.551000000     3.053000000    -1.251000000
H     3.749000000     3.443000000    -0.904000000
H     5.228000000     3.294000000    -0.619000000
O    -0.658000000    -4.880000000    -2.545000000
H    -0.854000000    -5.708000000    -2.983000000
H     0.278000000    -4.929000000    -2.348000000
O     0.619000000     4.261000000     5.689000000
H     0.707000000     4.220000000     4.737000000
H     0.570000000     3.345000000     5.965000000
O    -3.918000000     4.059000000    -0.527000000
H    -3.274000000     4.417000000    -1.138000000
H    -4.226000000     3.256000000    -0.948000000
O     2.844000000     6.806000000    -1.097000000
H     2.522000000     6.073000000    -1.623000000
H     2.120000000     7.432000000    -1.090000000
O    -5.892000000     1.585000000     1.042000000
H    -5.505000000     1.688000000     0.172000000
H    -5.217000000     1.138000000     1.552000000
O     0.338000000    -1.410000000     6.549000000
H     0.979000000    -1.224000000     5.863000000
H    -0.504000000    -1.168000000     6.162000000
O     2.620000000     5.172000000     1.028000000
H     3.425000000     5.382000000     1.503000000
H     2.628000000     5.762000000     0.274000000
O     2.519000000     1.455000000     2.828000000
H     3.322000000     1.657000000     3.309000000
H     1.983000000     2.243000000     2.916000000
O    -2.722000000    -2.916000000    -2.333000000
H    -1.909000000    -3.396000000    -2.173000000
H    -3.380000000    -3.380000000    -1.815000000
O     1.821000000    -6.249000000     1.296000000
H     2.011000000    -6.908000000     1.963000000
H     2.549000000    -5.630000000     1.357000000
O    -0.871000000     5.348000000    -1.061000000
H    -1.416000000     4.679000000    -1.475000000
H    -0.105000000     5.419000000    -1.631000000
O    -0.825000000     5.306000000     1.931000000
H    -0.627000000     5.538000000     1.024000000
H    -1.655000000     4.832000000     1.881000000
O     0.690000000     1.660000000     6.610000000
H     0.417000000     2.086000000     7.423000000
H     0.235000000     0.818000000     6.617000000
O    -0.808000000     5.054000000    -4.829000000
H    -1.354000000     4.836000000    -4.074000000
H    -0.385000000     4.228000000    -5.065000000
O    -4.038000000     2.560000000    -4.691000000
H    -4.799000000     2.248000000    -4.201000000
H    -3.487000000     1.785000000    -4.797000000
O    -1.346000000    -3.926000000     4.541000000
H    -0.757000000    -3.299000000     4.120000000
H    -2.120000000    -3.942000000     3.978000000
O    -3.404000000    -4.564000000     2.807000000
H    -4.011000000    -4.118000000     3.397000000
H    -3.743000000    -4.382000000     1.931000000
O    -3.515000000    -5.236000000    -0.847000000
H    -2.970000000    -5.638000000    -0.171000000
H    -3.765000000    -5.963000000    -1.417000000
O    -1.919000000     3.495000000    -2.624000000
H    -2.398000000     3.146000000    -3.375000000
H    -1.131000000     2.955000000    -2.570000000
O    -3.556000000     3.985000000     2.171000000
H    -4.388000000     3.661000000     2.514000000
H    -3.698000000     4.056000000     1.227000000
O    -4.664000000     1.442000000    -1.542000000
H    -5.320000000     1.321000000    -2.228000000
H    -4.161000000     0.627000000    -1.545000000
O     2.311000000    -0.378000000     7.982000000
H     2.078000000     0.546000000     7.894000000
H     1.618000000    -0.845000000     7.514000000
O     4.375000000    -1.820000000    -0.946000000
H     4.029000000    -2.325000000    -1.682000000
H     3.613000000    -1.367000000    -0.587000000
O    -2.983000000     1.916000000     4.103000000
H    -3.405000000     1.268000000     3.540000000
H    -2.974000000     2.718000000     3.580000000
O    -2.061000000     0.733000000    -4.609000000
H    -2.016000000    -0.185000000    -4.875000000
H    -1.201000000     1.089000000    -4.830000000
O     2.994000000    -0.209000000     0.697000000
H     2.141000000    -0.226000000     0.262000000
H     2.838000000     0.266000000     1.513000000
