144
-2767.94499
O    -3.602000000    -4.069000000    -3.106000000
H    -4.521000000    -4.267000000    -2.925000000
H    -3.334000000    -3.498000000    -2.386000000
O     0.007000000     4.692000000    -5.898000000
H    -0.146000000     4.151000000    -5.123000000
H    -0.005000000     4.074000000    -6.628000000
O    -4.805000000     3.522000000     1.105000000
H    -4.922000000     4.472000000     1.114000000
H    -4.019000000     3.383000000     0.576000000
O     4.143000000    -5.368000000     3.177000000
H     3.943000000    -4.872000000     3.971000000
H     3.294000000    -5.698000000     2.880000000
O     3.170000000     2.615000000     3.700000000
H     2.516000000     3.257000000     3.424000000
H     3.380000000     2.861000000     4.602000000
O     3.785000000    -3.571000000     5.322000000
H     3.115000000    -2.935000000     5.573000000
H     4.603000000    -3.075000000     5.334000000
O    -1.690000000     4.452000000     2.313000000
H    -1.473000000     5.385000000     2.301000000
H    -1.751000000     4.209000000     1.389000000
O    -4.421000000     7.049000000    -1.616000000
H    -3.731000000     6.708000000    -1.047000000
H    -5.055000000     6.334000000    -1.679000000
O    -1.067000000    -5.086000000    -4.413000000
H    -1.379000000    -5.455000000    -5.240000000
H    -1.790000000    -5.225000000    -3.802000000
O    -5.704000000     3.336000000    -4.286000000
H    -6.589000000     2.992000000    -4.166000000
H    -5.384000000     3.488000000    -3.397000000
O    -2.670000000     1.013000000     3.138000000
H    -2.435000000     1.750000000     3.701000000
H    -2.856000000     1.410000000     2.287000000
O     2.534000000     1.149000000    -1.282000000
H     2.993000000     1.152000000    -0.442000000
H     1.682000000     0.759000000    -1.088000000
O     1.647000000     5.927000000     1.093000000
H     2.526000000     5.936000000     0.714000000
H     1.761000000     6.288000000     1.972000000
O    -3.706000000    -2.266000000    -5.095000000
H    -3.905000000    -2.988000000    -4.499000000
H    -3.922000000    -1.477000000    -4.598000000
O     3.646000000     1.275000000     1.120000000
H     3.058000000     1.924000000     1.507000000
H     3.959000000     0.762000000     1.864000000
O    -2.353000000     5.559000000    -0.699000000
H    -2.196000000     4.651000000    -0.440000000
H    -2.201000000     5.569000000    -1.644000000
O     5.217000000    -5.893000000     0.184000000
H     4.956000000    -6.116000000     1.078000000
H     4.555000000    -5.268000000    -0.110000000
O     5.734000000    -1.450000000     5.051000000
H     6.117000000    -0.888000000     5.725000000
H     5.279000000    -0.845000000     4.465000000
O     1.191000000     1.951000000    -6.072000000
H     1.388000000     1.066000000    -6.379000000
H     0.583000000     1.821000000    -5.344000000
O    -1.152000000    -4.269000000     0.371000000
H    -0.895000000    -5.174000000     0.544000000
H    -0.714000000    -3.760000000     1.053000000
O     0.002000000     0.666000000     4.939000000
H    -0.610000000     0.668000000     5.675000000
H    -0.060000000     1.549000000     4.574000000
O     0.049000000    -3.779000000     4.410000000
H    -0.899000000    -3.756000000     4.280000000
H     0.160000000    -4.096000000     5.306000000
O     5.422000000     3.294000000     0.967000000
H     4.898000000     2.493000000     0.976000000
H     6.021000000     3.180000000     0.228000000
O     0.409000000    -4.538000000    -2.063000000
H     0.068000000    -4.120000000    -1.272000000
H    -0.334000000    -4.551000000    -2.667000000
O     0.234000000     3.564000000     4.386000000
H     0.616000000     4.295000000     4.871000000
H    -0.219000000     3.975000000     3.649000000
O    -3.233000000    -1.202000000     1.425000000
H    -3.692000000    -0.590000000     2.000000000
H    -2.306000000    -0.996000000     1.546000000
O     0.751000000     4.160000000    -1.255000000
H     0.255000000     3.708000000    -0.572000000
H     1.581000000     4.388000000    -0.837000000
O     1.798000000    -5.013000000    -5.504000000
H     1.659000000    -5.847000000    -5.951000000
H     1.164000000    -5.017000000    -4.787000000
O     1.461000000    -1.532000000     5.604000000
H     1.136000000    -2.135000000     4.935000000
H     1.311000000    -0.661000000     5.235000000
O    -6.665000000     5.403000000    -2.240000000
H    -7.509000000     5.042000000    -1.968000000
H    -6.062000000     4.661000000    -2.197000000
O    -6.474000000     1.427000000     0.083000000
H    -5.972000000     1.843000000     0.784000000
H    -7.296000000     1.167000000     0.499000000
O     3.207000000     2.876000000    -3.192000000
H     3.809000000     2.368000000    -3.736000000
H     2.928000000     2.265000000    -2.510000000
O    -2.878000000     2.118000000    -5.056000000
H    -3.545000000     2.213000000    -4.376000000
H    -2.048000000     2.115000000    -4.579000000
O    -0.232000000     2.718000000    -3.991000000
H     0.544000000     2.940000000    -3.476000000
H    -0.966000000     2.880000000    -3.398000000
O    -2.339000000     4.534000000    -3.329000000
H    -2.923000000     4.424000000    -4.079000000
H    -2.373000000     3.693000000    -2.874000000
O    -3.851000000    -0.121000000    -2.916000000
H    -4.295000000    -0.505000000    -2.161000000
H    -3.446000000     0.677000000    -2.576000000
O     6.751000000    -0.086000000    -2.070000000
H     7.559000000    -0.286000000    -2.542000000
H     6.328000000    -0.935000000    -1.947000000
O     1.533000000    -5.769000000     2.681000000
H     1.140000000    -4.997000000     3.088000000
H     0.921000000    -6.011000000     1.986000000
O    -1.077000000    -1.953000000    -5.176000000
H    -2.006000000    -1.742000000    -5.088000000
H    -1.031000000    -2.898000000    -5.027000000
O     3.512000000    -4.443000000    -1.196000000
H     4.031000000    -4.480000000    -1.999000000
H     2.710000000    -4.922000000    -1.406000000
O    -6.206000000     2.416000000     3.194000000
H    -6.540000000     3.151000000     3.709000000
H    -5.614000000     2.819000000     2.559000000
O    -0.249000000     7.526000000    -0.735000000
H    -0.805000000     6.854000000    -0.342000000
H     0.627000000     7.142000000    -0.735000000
O    -2.918000000     3.300000000     4.891000000
H    -3.444000000     3.662000000     4.178000000
H    -2.039000000     3.648000000     4.741000000
O    -4.915000000     3.561000000    -1.795000000
H    -5.233000000     3.358000000    -0.915000000
H    -4.014000000     3.238000000    -1.804000000
O     5.373000000    -2.322000000    -1.873000000
H     5.833000000    -3.104000000    -2.176000000
H     4.718000000    -2.652000000    -1.257000000
O     3.645000000    -0.145000000     3.696000000
H     3.371000000     0.703000000     4.044000000
H     2.995000000    -0.763000000     4.032000000
O     1.374000000    -0.707000000    -6.523000000
H     0.651000000    -0.933000000    -5.938000000
H     1.119000000    -1.071000000    -7.371000000
O    -4.874000000    -0.799000000    -0.633000000
H    -4.317000000    -1.026000000     0.112000000
H    -5.477000000    -0.140000000    -0.290000000
