144
-2829.56796
O    -0.103000000     7.053000000    -0.552000000
H     0.786000000     7.363000000    -0.378000000
H    -0.030000000     6.098000000    -0.542000000
O     1.394000000     3.220000000     3.037000000
H     0.516000000     2.878000000     3.207000000
H     1.673000000     3.589000000     3.874000000
O     1.891000000     3.577000000    -1.573000000
H     2.310000000     3.036000000    -2.243000000
H     2.005000000     3.083000000    -0.761000000
O     1.008000000     1.636000000    -4.851000000
H     1.836000000     1.778000000    -4.393000000
H     1.230000000     1.045000000    -5.571000000
O     4.196000000    -3.320000000     2.082000000
H     4.745000000    -3.305000000     1.298000000
H     4.020000000    -2.398000000     2.269000000
O    -4.334000000     3.966000000     2.046000000
H    -3.881000000     3.278000000     1.558000000
H    -4.454000000     3.599000000     2.922000000
O    -0.971000000     3.685000000    -2.825000000
H    -0.023000000     3.792000000    -2.743000000
H    -1.300000000     3.772000000    -1.930000000
O     5.536000000    -2.954000000    -5.981000000
H     5.184000000    -2.144000000    -6.349000000
H     4.883000000    -3.229000000    -5.337000000
O    -7.986000000     2.777000000    -1.350000000
H    -7.258000000     3.311000000    -1.032000000
H    -7.569000000     2.003000000    -1.727000000
O    -3.432000000     5.204000000    -2.623000000
H    -3.157000000     5.544000000    -1.772000000
H    -3.855000000     4.369000000    -2.422000000
O    -3.501000000    -1.588000000     2.824000000
H    -4.363000000    -1.428000000     3.208000000
H    -3.241000000    -0.744000000     2.456000000
O     3.641000000    -5.126000000    -1.822000000
H     3.122000000    -5.884000000    -2.093000000
H     3.206000000    -4.809000000    -1.031000000
O    -2.752000000     6.469000000    -0.088000000
H    -1.882000000     6.744000000    -0.377000000
H    -2.829000000     6.816000000     0.801000000
O     6.008000000    -3.486000000     0.098000000
H     6.735000000    -4.048000000    -0.171000000
H     6.429000000    -2.736000000     0.519000000
O    -0.979000000     4.293000000     0.094000000
H    -0.446000000     4.136000000     0.873000000
H    -1.793000000     3.818000000     0.261000000
O     2.568000000     1.827000000     0.814000000
H     2.417000000     2.183000000     1.689000000
H     1.933000000     1.116000000     0.732000000
O    -4.778000000     2.974000000     5.294000000
H    -4.125000000     2.278000000     5.220000000
H    -5.583000000     2.522000000     5.548000000
O    -1.490000000    -2.800000000     6.953000000
H    -1.345000000    -3.669000000     7.326000000
H    -1.317000000    -2.909000000     6.017000000
O    -2.990000000    -3.718000000     1.173000000
H    -3.081000000    -2.925000000     1.702000000
H    -3.830000000    -3.802000000     0.722000000
O    -6.001000000     0.479000000    -1.906000000
H    -5.141000000     0.245000000    -2.254000000
H    -6.607000000     0.299000000    -2.625000000
O    -1.297000000     3.093000000     3.404000000
H    -1.807000000     3.693000000     3.948000000
H    -1.903000000     2.381000000     3.200000000
O     6.224000000    -1.597000000    -2.974000000
H     6.607000000    -2.453000000    -3.167000000
H     5.397000000    -1.797000000    -2.536000000
O    -8.530000000     1.150000000     2.217000000
H    -7.661000000     1.364000000     1.878000000
H    -9.051000000     1.936000000     2.052000000
O    -5.964000000    -0.594000000     3.572000000
H    -6.865000000    -0.869000000     3.741000000
H    -6.049000000     0.260000000     3.148000000
O     1.817000000     5.854000000    -3.301000000
H     1.883000000     5.053000000    -2.780000000
H     2.000000000     6.559000000    -2.680000000
O     1.344000000    -4.574000000    -5.552000000
H     1.168000000    -5.026000000    -6.377000000
H     1.778000000    -5.231000000    -5.007000000
O    -5.457000000     3.855000000    -0.855000000
H    -4.776000000     3.367000000    -0.393000000
H    -5.766000000     4.497000000    -0.217000000
O     3.702000000    -3.495000000    -3.996000000
H     3.817000000    -3.973000000    -3.174000000
H     2.834000000    -3.757000000    -4.305000000
O     2.891000000    -5.451000000     3.958000000
H     3.210000000    -4.779000000     3.355000000
H     1.959000000    -5.532000000     3.755000000
O     1.765000000    -1.015000000     3.938000000
H     2.232000000    -0.330000000     3.459000000
H     2.440000000    -1.654000000     4.162000000
O     4.475000000    -0.747000000     2.793000000
H     5.124000000    -0.377000000     3.391000000
H     4.846000000    -0.611000000     1.921000000
O     2.097000000    -4.683000000     0.360000000
H     1.145000000    -4.589000000     0.351000000
H     2.380000000    -4.178000000     1.123000000
O     3.428000000     2.264000000    -3.553000000
H     3.768000000     2.928000000    -4.153000000
H     4.185000000     1.715000000    -3.348000000
O    -0.824000000    -4.032000000    -3.928000000
H    -1.352000000    -3.256000000    -4.111000000
H    -0.083000000    -3.965000000    -4.531000000
O    -1.264000000    -2.511000000     4.234000000
H    -2.098000000    -2.349000000     3.793000000
H    -0.875000000    -1.642000000     4.339000000
O    -0.490000000    -4.203000000    -0.356000000
H    -1.260000000    -3.908000000     0.129000000
H    -0.616000000    -3.857000000    -1.239000000
O    -3.481000000    -0.977000000    -2.660000000
H    -2.531000000    -0.901000000    -2.752000000
H    -3.627000000    -1.896000000    -2.437000000
O    -1.539000000     2.257000000    -5.277000000
H    -1.678000000     2.799000000    -4.500000000
H    -0.774000000     1.724000000    -5.063000000
O    -5.474000000     6.203000000     0.631000000
H    -5.106000000     5.782000000     1.408000000
H    -4.722000000     6.339000000     0.054000000
O     6.189000000    -0.122000000     0.763000000
H     5.877000000     0.630000000     0.259000000
H     7.143000000    -0.063000000     0.715000000
O     5.740000000     3.247000000     1.082000000
H     5.519000000     3.516000000     1.974000000
H     5.011000000     2.689000000     0.812000000
O     0.090000000    -5.296000000     3.892000000
H    -0.389000000    -4.489000000     3.702000000
H    -0.463000000    -5.992000000     3.536000000
O     3.585000000    -2.835000000     5.152000000
H     3.370000000    -3.049000000     6.060000000
H     3.389000000    -3.635000000     4.664000000
O    -5.760000000     1.393000000     1.439000000
H    -5.624000000     1.237000000     0.505000000
H    -4.888000000     1.597000000     1.777000000
O     0.825000000    -6.160000000    -2.159000000
H     0.098000000    -5.805000000    -2.672000000
H     0.481000000    -6.223000000    -1.268000000
O    -3.218000000     0.956000000     4.882000000
H    -3.473000000     0.749000000     3.983000000
H    -2.368000000     0.530000000     4.993000000
O    -0.472000000     0.387000000     5.237000000
H     0.362000000    -0.081000000     5.203000000
H    -0.286000000     1.237000000     4.839000000
O     6.470000000     1.084000000    -1.822000000
H     6.374000000     0.138000000    -1.707000000
H     6.587000000     1.200000000    -2.765000000
