144
-2830.28674
O     1.919000000     3.140000000    -3.812000000
H     1.530000000     2.741000000    -4.590000000
H     1.992000000     4.069000000    -4.029000000
O    -3.532000000     2.543000000     2.746000000
H    -3.652000000     1.901000000     3.445000000
H    -3.936000000     2.139000000     1.977000000
O    -1.087000000     3.449000000     1.810000000
H    -1.286000000     3.506000000     0.875000000
H    -1.883000000     3.091000000     2.202000000
O     3.215000000    -2.880000000     3.253000000
H     3.865000000    -3.548000000     3.468000000
H     2.628000000    -3.308000000     2.629000000
O    -3.245000000     1.768000000     5.317000000
H    -2.362000000     2.125000000     5.216000000
H    -3.807000000     2.538000000     5.398000000
O     5.527000000    -0.137000000    -1.788000000
H     5.458000000     0.576000000    -2.424000000
H     5.605000000    -0.927000000    -2.322000000
O    -3.585000000     1.693000000    -6.087000000
H    -4.503000000     1.804000000    -6.336000000
H    -3.574000000     0.893000000    -5.561000000
O    -7.640000000     2.993000000     2.339000000
H    -6.924000000     2.476000000     1.970000000
H    -8.432000000     2.610000000     1.962000000
O    -2.613000000     3.592000000    -0.998000000
H    -3.052000000     2.751000000    -1.128000000
H    -2.236000000     3.800000000    -1.852000000
O     8.342000000    -0.881000000    -1.264000000
H     7.903000000    -0.571000000    -2.057000000
H     7.672000000    -0.826000000    -0.583000000
O     1.235000000     3.010000000    -1.285000000
H     0.928000000     2.104000000    -1.239000000
H     1.431000000     3.150000000    -2.212000000
O    -1.225000000     4.240000000    -3.167000000
H    -0.329000000     4.571000000    -3.101000000
H    -1.469000000     4.390000000    -4.080000000
O     5.394000000    -2.218000000     0.162000000
H     5.208000000    -1.501000000    -0.444000000
H     5.789000000    -1.793000000     0.923000000
O    -5.353000000     2.430000000    -0.210000000
H    -6.008000000     2.279000000    -0.892000000
H    -4.752000000     1.689000000    -0.287000000
O     2.271000000     3.115000000     3.620000000
H     3.065000000     2.592000000     3.510000000
H     2.057000000     3.414000000     2.736000000
O     4.952000000     2.224000000     2.771000000
H     4.827000000     1.276000000     2.801000000
H     5.474000000     2.421000000     3.549000000
O     0.735000000     2.226000000    -5.954000000
H    -0.114000000     1.840000000    -6.171000000
H     1.129000000     2.429000000    -6.802000000
O    -4.148000000    -2.139000000     1.584000000
H    -4.224000000    -1.282000000     1.165000000
H    -3.617000000    -1.978000000     2.364000000
O     5.664000000     2.537000000    -2.814000000
H     5.050000000     3.193000000    -2.484000000
H     6.528000000     2.889000000    -2.603000000
O     1.407000000     4.115000000     1.133000000
H     1.419000000     3.800000000     0.229000000
H     0.564000000     3.823000000     1.478000000
O     0.052000000    -0.125000000     6.060000000
H     0.370000000     0.420000000     6.780000000
H    -0.195000000     0.500000000     5.378000000
O     3.111000000    -3.201000000    -1.229000000
H     3.930000000    -2.936000000    -0.809000000
H     3.192000000    -2.889000000    -2.130000000
O     0.176000000    -0.720000000    -6.775000000
H     0.950000000    -0.714000000    -6.212000000
H    -0.504000000    -1.133000000    -6.243000000
O    -6.376000000     0.648000000     2.198000000
H    -6.792000000    -0.030000000     2.730000000
H    -5.765000000     0.171000000     1.637000000
O    -0.834000000    -2.641000000     3.762000000
H    -0.510000000    -2.889000000     2.896000000
H    -1.455000000    -1.933000000     3.591000000
O     4.046000000     4.107000000    -1.246000000
H     4.420000000     4.417000000    -0.422000000
H     3.439000000     3.412000000    -0.988000000
O    -6.690000000     4.567000000    -2.264000000
H    -6.122000000     4.023000000    -2.809000000
H    -6.128000000     4.854000000    -1.544000000
O     1.706000000    -5.619000000    -2.317000000
H     2.142000000    -4.869000000    -1.912000000
H     1.502000000    -6.202000000    -1.585000000
O     1.800000000    -3.733000000     0.987000000
H     1.901000000    -3.646000000     0.039000000
H     0.872000000    -3.559000000     1.146000000
O     5.699000000    -4.952000000     0.825000000
H     4.950000000    -5.533000000     0.962000000
H     5.317000000    -4.145000000     0.480000000
O     2.989000000    -2.437000000    -3.822000000
H     2.471000000    -1.636000000    -3.895000000
H     2.736000000    -2.956000000    -4.586000000
O    -4.597000000     4.941000000     0.132000000
H    -3.699000000     4.671000000    -0.061000000
H    -5.090000000     4.121000000     0.173000000
O    -4.461000000     2.621000000    -3.718000000
H    -4.070000000     1.835000000    -3.338000000
H    -4.107000000     2.660000000    -4.606000000
O     2.117000000     0.322000000    -4.348000000
H     1.541000000     0.987000000    -4.726000000
H     2.928000000     0.790000000    -4.152000000
O    -8.206000000     1.861000000    -3.650000000
H    -8.328000000     1.032000000    -4.113000000
H    -7.450000000     1.710000000    -3.082000000
O    -3.703000000    -0.158000000    -3.892000000
H    -4.179000000    -0.985000000    -3.811000000
H    -3.587000000     0.140000000    -2.990000000
O    -2.972000000    -0.844000000     3.681000000
H    -2.744000000    -0.224000000     4.373000000
H    -3.788000000    -1.246000000     3.979000000
O     6.885000000     0.039000000     0.905000000
H     6.617000000     0.884000000     0.543000000
H     6.677000000     0.102000000     1.837000000
O    -5.012000000    -4.328000000     0.442000000
H    -5.799000000    -3.965000000     0.037000000
H    -4.621000000    -3.589000000     0.909000000
O     4.925000000    -0.355000000     3.394000000
H     5.157000000    -0.684000000     4.263000000
H     4.260000000    -0.966000000     3.076000000
O    -0.751000000    -3.114000000     0.925000000
H    -1.395000000    -3.699000000     0.525000000
H    -0.666000000    -2.391000000     0.305000000
O     4.718000000     4.625000000     1.343000000
H     4.648000000     3.808000000     1.839000000
H     4.727000000     5.310000000     2.011000000
O    -5.601000000    -1.497000000    -2.082000000
H    -6.060000000    -0.657000000    -2.113000000
H    -4.898000000    -1.362000000    -1.447000000
O    -7.219000000     0.715000000    -1.194000000
H    -7.597000000     1.201000000    -0.461000000
H    -7.966000000     0.276000000    -1.601000000
O    -0.421000000     1.985000000     4.471000000
H    -0.979000000     2.761000000     4.512000000
H     0.455000000     2.328000000     4.300000000
O    -1.752000000    -2.008000000    -5.088000000
H    -2.131000000    -2.765000000    -4.640000000
H    -2.271000000    -1.264000000    -4.782000000
O     2.504000000    -1.339000000     5.689000000
H     1.699000000    -0.896000000     5.958000000
H     2.207000000    -2.066000000     5.143000000
O     5.483000000    -2.426000000    -3.047000000
H     4.589000000    -2.433000000    -3.390000000
H     5.800000000    -3.318000000    -3.189000000
