144
-2818.40922
O     1.323000000    -3.602000000    -2.905000000
H     2.043000000    -3.137000000    -2.480000000
H     1.677000000    -3.868000000    -3.754000000
O    -1.714000000    -4.092000000    -3.149000000
H    -1.960000000    -3.188000000    -2.953000000
H    -0.760000000    -4.102000000    -3.077000000
O     2.310000000    -0.863000000    -4.889000000
H     3.086000000    -0.791000000    -5.445000000
H     2.629000000    -1.276000000    -4.086000000
O    -1.189000000     3.518000000     1.590000000
H    -0.953000000     3.178000000     0.727000000
H    -0.353000000     3.627000000     2.042000000
O    -2.751000000    -6.647000000    -3.266000000
H    -2.800000000    -5.713000000    -3.468000000
H    -1.851000000    -6.892000000    -3.482000000
O    -3.485000000    -0.760000000     4.374000000
H    -3.934000000    -1.232000000     3.672000000
H    -3.491000000     0.154000000     4.090000000
O    -3.511000000     2.860000000    -2.244000000
H    -3.808000000     2.033000000    -1.865000000
H    -2.653000000     3.011000000    -1.848000000
O     5.369000000     2.164000000     4.881000000
H     5.732000000     2.402000000     4.028000000
H     5.093000000     1.253000000     4.778000000
O     7.110000000     4.214000000    -0.821000000
H     7.096000000     5.157000000    -0.657000000
H     6.362000000     3.874000000    -0.330000000
O     1.147000000     4.872000000     2.849000000
H     1.911000000     4.453000000     3.246000000
H     1.234000000     5.796000000     3.081000000
O    -7.421000000    -1.298000000    -1.835000000
H    -6.509000000    -1.010000000    -1.871000000
H    -7.384000000    -2.236000000    -2.026000000
O    -3.292000000     1.892000000     2.466000000
H    -3.580000000     2.418000000     3.212000000
H    -2.582000000     2.400000000     2.074000000
O     6.154000000     2.008000000     2.029000000
H     7.080000000     2.201000000     1.889000000
H     6.015000000     1.168000000     1.592000000
O    -5.849000000     1.593000000     1.000000000
H    -6.236000000     0.790000000     1.347000000
H    -5.033000000     1.697000000     1.491000000
O    -3.099000000    -1.936000000    -6.851000000
H    -2.804000000    -1.447000000    -7.619000000
H    -4.044000000    -2.026000000    -6.973000000
O    -2.402000000     3.199000000     5.867000000
H    -3.233000000     3.018000000     5.428000000
H    -1.875000000     3.649000000     5.206000000
O    -1.872000000     0.199000000     6.530000000
H    -1.651000000     1.129000000     6.486000000
H    -1.428000000    -0.117000000     7.317000000
O    -6.781000000    -0.493000000     2.590000000
H    -5.939000000    -0.852000000     2.308000000
H    -7.423000000    -1.152000000     2.324000000
O     3.368000000    -2.903000000     3.366000000
H     3.893000000    -3.396000000     3.996000000
H     3.483000000    -3.373000000     2.540000000
O     1.019000000     1.943000000    -5.075000000
H     1.625000000     2.195000000    -5.772000000
H     1.440000000     1.195000000    -4.651000000
O    -1.366000000     3.751000000    -4.324000000
H    -0.561000000     3.385000000    -4.691000000
H    -1.454000000     3.326000000    -3.470000000
O    -5.098000000     0.506000000    -1.427000000
H    -4.488000000    -0.124000000    -1.045000000
H    -5.359000000     1.062000000    -0.693000000
O     7.289000000    -0.727000000     1.741000000
H     6.851000000    -1.235000000     1.058000000
H     8.120000000    -0.462000000     1.348000000
O     0.210000000    -3.963000000     0.652000000
H     0.182000000    -4.595000000    -0.066000000
H    -0.709000000    -3.796000000     0.860000000
O    -4.864000000    -1.088000000    -3.895000000
H    -4.962000000    -0.487000000    -3.156000000
H    -4.041000000    -1.547000000    -3.723000000
O     3.694000000    -1.767000000    -2.722000000
H     4.623000000    -1.626000000    -2.905000000
H     3.680000000    -2.184000000    -1.861000000
O     0.116000000    -1.948000000    -5.925000000
H    -0.457000000    -1.242000000    -5.627000000
H     0.999000000    -1.644000000    -5.716000000
O     2.317000000    -2.267000000    -0.239000000
H     1.618000000    -2.730000000     0.222000000
H     1.988000000    -1.374000000    -0.338000000
O    -1.222000000    -2.701000000     2.895000000
H    -1.778000000    -2.828000000     2.127000000
H    -1.512000000    -3.371000000     3.514000000
O    -7.326000000    -2.407000000    -5.003000000
H    -6.408000000    -2.193000000    -4.837000000
H    -7.572000000    -2.982000000    -4.278000000
O     1.935000000    -4.262000000    -5.418000000
H     2.587000000    -4.322000000    -6.116000000
H     1.486000000    -3.432000000    -5.581000000
O    -0.239000000     2.791000000     4.191000000
H     0.207000000     2.097000000     4.675000000
H     0.466000000     3.265000000     3.749000000
O    -7.347000000    -3.919000000    -2.481000000
H    -7.798000000    -4.754000000    -2.611000000
H    -6.478000000    -4.164000000    -2.164000000
O     4.582000000     4.010000000     0.792000000
H     4.414000000     4.803000000     1.302000000
H     4.983000000     3.405000000     1.416000000
O    -2.112000000    -0.098000000    -4.785000000
H    -2.250000000    -0.403000000    -3.888000000
H    -2.462000000    -0.800000000    -5.333000000
O    -4.363000000    -3.876000000    -2.038000000
H    -4.029000000    -3.049000000    -1.691000000
H    -3.633000000    -4.235000000    -2.543000000
O    -0.201000000     6.473000000     0.375000000
H    -0.958000000     6.002000000     0.027000000
H     0.116000000     5.922000000     1.090000000
O    -0.829000000     2.652000000    -1.705000000
H    -0.402000000     1.826000000    -1.480000000
H    -0.223000000     3.327000000    -1.397000000
O     2.082000000     0.678000000     5.465000000
H     1.600000000    -0.129000000     5.282000000
H     2.802000000     0.675000000     4.835000000
O     5.682000000     2.192000000    -2.893000000
H     5.080000000     2.752000000    -3.383000000
H     5.936000000     2.719000000    -2.135000000
O    -4.593000000     1.029000000    -6.541000000
H    -4.376000000     0.406000000    -5.848000000
H    -4.607000000     1.880000000    -6.102000000
O    -4.599000000    -1.775000000     1.966000000
H    -4.347000000    -1.921000000     1.054000000
H    -4.778000000    -2.651000000     2.308000000
O     5.241000000    -2.055000000     0.217000000
H     5.754000000    -2.791000000    -0.117000000
H     4.334000000    -2.360000000     0.183000000
O     4.463000000    -0.326000000     3.934000000
H     5.300000000    -0.775000000     4.044000000
H     3.924000000    -0.940000000     3.436000000
O    -2.594000000    -3.986000000     0.687000000
H    -2.809000000    -3.244000000     0.121000000
H    -3.214000000    -4.669000000     0.432000000
O     0.395000000    -1.237000000     4.984000000
H    -0.410000000    -0.796000000     5.255000000
H     0.224000000    -1.514000000     4.084000000
O     1.266000000     4.011000000    -0.320000000
H     2.142000000     4.205000000     0.013000000
H     1.301000000     4.259000000    -1.244000000
O     2.653000000     3.667000000     4.610000000
H     2.393000000     3.639000000     5.531000000
H     3.502000000     3.225000000     4.587000000
