144
-2821.39564
O     1.561000000     6.191000000     1.470000000
H     1.772000000     6.210000000     2.404000000
H     2.354000000     5.853000000     1.053000000
O     4.671000000     1.130000000    -1.942000000
H     3.839000000     1.551000000    -2.159000000
H     4.462000000     0.197000000    -1.896000000
O     2.299000000     2.734000000    -2.784000000
H     1.449000000     2.609000000    -2.363000000
H     2.133000000     2.574000000    -3.713000000
O    -2.429000000    -4.102000000    -1.753000000
H    -2.077000000    -3.395000000    -2.294000000
H    -3.366000000    -3.915000000    -1.696000000
O     1.742000000     5.976000000     4.288000000
H     1.781000000     5.484000000     5.108000000
H     2.564000000     5.769000000     3.844000000
O     2.797000000    -0.437000000    -4.467000000
H     1.879000000    -0.279000000    -4.248000000
H     3.003000000     0.225000000    -5.126000000
O    -0.274000000    -5.173000000    -0.432000000
H    -0.776000000    -5.574000000     0.278000000
H    -0.937000000    -4.881000000    -1.058000000
O     2.385000000     3.425000000    -0.107000000
H     1.477000000     3.495000000     0.187000000
H     2.349000000     2.827000000    -0.854000000
O    -3.558000000     1.926000000    -5.126000000
H    -3.125000000     2.401000000    -4.417000000
H    -3.655000000     2.574000000    -5.824000000
O     0.590000000    -2.847000000     6.422000000
H     0.160000000    -2.671000000     5.585000000
H     0.399000000    -3.768000000     6.601000000
O     3.243000000     0.755000000     5.193000000
H     4.183000000     0.864000000     5.052000000
H     2.839000000     1.114000000     4.403000000
O    -3.267000000    -3.164000000     1.659000000
H    -2.387000000    -2.898000000     1.925000000
H    -3.827000000    -2.907000000     2.392000000
O     1.041000000    -2.167000000    -7.945000000
H     1.724000000    -2.615000000    -7.446000000
H     1.154000000    -1.242000000    -7.729000000
O    -5.863000000     2.904000000    -0.506000000
H    -5.784000000     2.628000000    -1.419000000
H    -5.612000000     2.132000000     0.001000000
O    -0.334000000    -2.656000000     3.947000000
H    -0.027000000    -2.546000000     3.047000000
H    -0.866000000    -3.451000000     3.922000000
O     5.959000000    -3.141000000     0.425000000
H     5.265000000    -3.509000000    -0.122000000
H     5.583000000    -2.335000000     0.780000000
O     2.173000000    -0.814000000     7.310000000
H     2.573000000    -0.261000000     6.639000000
H     1.535000000    -1.345000000     6.834000000
O    -1.899000000     3.578000000    -3.476000000
H    -2.240000000     3.870000000    -2.630000000
H    -1.121000000     3.065000000    -3.256000000
O    -0.072000000    -3.085000000     1.382000000
H    -0.095000000    -2.385000000     0.729000000
H     0.062000000    -3.883000000     0.871000000
O    -3.074000000     3.347000000     2.004000000
H    -2.409000000     3.931000000     2.369000000
H    -2.650000000     2.944000000     1.247000000
O    -0.575000000     4.194000000     0.516000000
H    -0.922000000     5.060000000     0.300000000
H    -0.591000000     4.161000000     1.472000000
O    -0.186000000     2.395000000    -1.543000000
H    -0.551000000     2.845000000    -0.781000000
H    -0.085000000     1.487000000    -1.259000000
O     2.019000000    -3.924000000    -1.402000000
H     1.225000000    -4.449000000    -1.297000000
H     2.061000000    -3.740000000    -2.340000000
O    -3.542000000     1.295000000     5.123000000
H    -3.864000000     1.572000000     4.265000000
H    -2.910000000     0.602000000     4.929000000
O    -4.308000000    -0.399000000    -4.033000000
H    -3.574000000    -0.543000000    -3.435000000
H    -4.086000000     0.409000000    -4.494000000
O    -5.641000000     4.209000000     2.092000000
H    -5.886000000     3.844000000     1.242000000
H    -4.734000000     3.929000000     2.220000000
O     1.227000000    -3.219000000    -3.903000000
H     0.499000000    -2.616000000    -3.754000000
H     0.953000000    -3.746000000    -4.653000000
O     5.714000000    -1.360000000    -4.166000000
H     4.764000000    -1.476000000    -4.195000000
H     5.869000000    -0.536000000    -4.627000000
O     3.805000000    -2.521000000     3.923000000
H     3.636000000    -2.861000000     3.044000000
H     4.202000000    -3.255000000     4.392000000
O    -4.753000000    -2.975000000    -4.663000000
H    -5.588000000    -3.132000000    -5.102000000
H    -4.741000000    -2.032000000    -4.499000000
O     1.123000000     0.406000000    -7.452000000
H     1.091000000     1.344000000    -7.264000000
H     0.437000000     0.028000000    -6.901000000
O     4.916000000    -0.161000000     1.043000000
H     5.114000000    -0.232000000     1.977000000
H     5.179000000     0.729000000     0.809000000
O     0.497000000     1.998000000    -4.661000000
H    -0.102000000     1.253000000    -4.616000000
H     0.056000000     2.625000000    -5.234000000
O    -5.233000000    -4.190000000    -2.203000000
H    -4.999000000    -3.609000000    -2.927000000
H    -5.912000000    -4.760000000    -2.563000000
O    -2.137000000    -2.760000000    -5.292000000
H    -1.885000000    -2.295000000    -4.494000000
H    -3.094000000    -2.727000000    -5.297000000
O    -0.028000000     1.778000000     5.676000000
H     0.908000000     1.960000000     5.759000000
H    -0.092000000     1.186000000     4.926000000
O     2.674000000    -2.939000000     1.295000000
H     1.860000000    -2.647000000     1.705000000
H     2.410000000    -3.232000000     0.423000000
O    -0.808000000     4.722000000     3.134000000
H    -0.230000000     5.420000000     2.824000000
H    -0.840000000     4.841000000     4.083000000
O    -5.278000000    -2.002000000     0.026000000
H    -5.419000000    -2.799000000    -0.485000000
H    -4.597000000    -2.239000000     0.656000000
O    -1.292000000    -0.354000000    -6.642000000
H    -1.504000000    -1.143000000    -6.144000000
H    -2.069000000     0.198000000    -6.559000000
O    -0.130000000    -4.463000000    -5.861000000
H    -0.176000000    -4.546000000    -6.814000000
H    -0.877000000    -3.909000000    -5.634000000
O     5.525000000     1.690000000     3.900000000
H     6.038000000     0.890000000     3.780000000
H     6.166000000     2.346000000     4.174000000
O    -5.029000000     0.712000000     1.020000000
H    -5.132000000    -0.232000000     0.898000000
H    -4.952000000     0.824000000     1.967000000
O     4.013000000    -1.412000000    -1.788000000
H     3.493000000    -1.495000000    -0.988000000
H     3.375000000    -1.488000000    -2.497000000
O    -1.991000000    -0.722000000     5.166000000
H    -1.507000000    -1.263000000     4.543000000
H    -1.533000000    -0.845000000     5.997000000
O     6.086000000    -1.143000000     3.505000000
H     6.441000000    -2.022000000     3.375000000
H     5.172000000    -1.287000000     3.749000000
O     4.988000000     2.613000000     0.458000000
H     4.637000000     2.163000000    -0.310000000
H     4.316000000     3.255000000     0.688000000
O     3.234000000    -2.866000000    -6.409000000
H     2.936000000    -3.100000000    -5.530000000
H     3.837000000    -3.569000000    -6.652000000
