144
-2813.18051
O     1.596000000     5.324000000     1.239000000
H     1.403000000     6.258000000     1.164000000
H     2.479000000     5.233000000     0.881000000
O     3.530000000    -2.650000000     0.072000000
H     3.714000000    -3.587000000     0.120000000
H     4.356000000    -2.230000000     0.312000000
O     4.945000000     0.085000000     0.996000000
H     5.111000000     0.995000000     0.748000000
H     5.293000000    -0.428000000     0.267000000
O     4.476000000     1.087000000    -2.304000000
H     4.431000000     1.249000000    -3.246000000
H     3.668000000     1.466000000    -1.957000000
O    -4.204000000    -1.537000000    -1.892000000
H    -4.053000000    -2.100000000    -1.133000000
H    -3.365000000    -1.526000000    -2.354000000
O    -1.274000000     0.391000000    -8.391000000
H    -0.641000000     0.254000000    -9.095000000
H    -0.807000000     0.138000000    -7.595000000
O     1.085000000     2.384000000    -4.140000000
H     1.060000000     2.812000000    -4.996000000
H     0.205000000     2.505000000    -3.785000000
O     2.115000000     2.086000000    -1.708000000
H     1.668000000     1.977000000    -2.547000000
H     1.615000000     1.543000000    -1.098000000
O    -5.556000000    -0.201000000    -6.015000000
H    -5.951000000     0.648000000    -5.815000000
H    -4.688000000    -0.161000000    -5.615000000
O    -1.538000000     3.122000000    -3.573000000
H    -1.617000000     4.060000000    -3.397000000
H    -2.014000000     2.991000000    -4.393000000
O     2.656000000    -0.716000000     4.025000000
H     2.005000000    -1.195000000     4.538000000
H     2.952000000    -0.016000000     4.607000000
O     3.470000000     0.537000000     6.312000000
H     2.659000000     1.040000000     6.388000000
H     4.163000000     1.172000000     6.493000000
O    -3.669000000    -2.734000000     0.492000000
H    -4.317000000    -2.302000000     1.048000000
H    -2.851000000    -2.675000000     0.986000000
O    -5.078000000     2.349000000     4.810000000
H    -4.565000000     1.986000000     4.088000000
H    -5.989000000     2.229000000     4.541000000
O     3.964000000     2.059000000    -4.615000000
H     3.038000000     2.184000000    -4.407000000
H     4.396000000     2.838000000    -4.264000000
O     1.552000000    -2.611000000     2.142000000
H     2.145000000    -2.752000000     1.404000000
H     1.857000000    -1.798000000     2.543000000
O     1.155000000     2.007000000     6.289000000
H     0.407000000     2.222000000     5.732000000
H     0.808000000     1.383000000     6.926000000
O    -1.049000000    -2.137000000     1.497000000
H    -1.214000000    -1.305000000     1.053000000
H    -0.095000000    -2.200000000     1.540000000
O    -3.697000000     4.198000000     0.336000000
H    -4.428000000     4.683000000     0.719000000
H    -2.949000000     4.413000000     0.893000000
O     4.806000000    -2.060000000     3.140000000
H     4.934000000    -1.347000000     2.514000000
H     3.935000000    -1.904000000     3.506000000
O    -2.452000000     2.792000000    -6.183000000
H    -1.837000000     2.060000000    -6.138000000
H    -2.870000000     2.702000000    -7.039000000
O     4.210000000    -3.760000000    -3.285000000
H     4.238000000    -4.173000000    -2.422000000
H     4.521000000    -2.867000000    -3.133000000
O     0.184000000    -3.917000000    -4.209000000
H     0.264000000    -3.039000000    -3.836000000
H     0.499000000    -3.825000000    -5.108000000
O    -5.819000000     1.139000000    -2.681000000
H    -5.259000000     1.912000000    -2.608000000
H    -5.362000000     0.570000000    -3.301000000
O    -0.861000000     4.139000000     1.867000000
H    -0.039000000     4.412000000     1.458000000
H    -0.701000000     3.237000000     2.147000000
O     0.192000000    -4.490000000     3.593000000
H     0.641000000    -3.867000000     3.021000000
H    -0.739000000    -4.333000000     3.434000000
O    -5.891000000    -1.195000000     1.462000000
H    -6.702000000    -0.722000000     1.273000000
H    -5.196000000    -0.591000000     1.201000000
O    -3.703000000     1.326000000     2.666000000
H    -4.135000000     1.388000000     1.814000000
H    -3.223000000     0.498000000     2.632000000
O     3.906000000    -0.503000000    -7.225000000
H     3.467000000    -0.467000000    -6.375000000
H     4.272000000     0.374000000    -7.342000000
O    -1.126000000     2.619000000     5.254000000
H    -1.620000000     1.802000000     5.182000000
H    -1.793000000     3.289000000     5.407000000
O    -4.115000000     3.216000000    -2.024000000
H    -3.261000000     3.048000000    -2.423000000
H    -3.923000000     3.781000000    -1.277000000
O     2.812000000    -1.680000000    -4.806000000
H     1.945000000    -1.542000000    -4.422000000
H     3.169000000    -2.429000000    -4.329000000
O    -2.751000000    -1.600000000     3.753000000
H    -2.035000000    -1.665000000     3.121000000
H    -2.680000000    -2.397000000     4.277000000
O    -2.895000000    -0.460000000    -5.285000000
H    -2.161000000    -0.244000000    -5.861000000
H    -2.484000000    -0.723000000    -4.462000000
O     5.831000000    -1.248000000    -2.764000000
H     6.550000000    -0.966000000    -3.328000000
H     5.371000000    -0.439000000    -2.540000000
O     0.636000000    -6.111000000    -0.270000000
H    -0.037000000    -6.791000000    -0.301000000
H     0.190000000    -5.318000000    -0.566000000
O     2.623000000     3.694000000     4.437000000
H     2.128000000     3.932000000     3.653000000
H     2.137000000     2.960000000     4.814000000
O    -1.552000000    -4.564000000    -1.994000000
H    -1.824000000    -3.718000000    -1.639000000
H    -1.096000000    -4.348000000    -2.807000000
O    -4.695000000     1.022000000     0.243000000
H    -4.678000000     1.976000000     0.169000000
H    -4.923000000     0.717000000    -0.636000000
O    -1.164000000     5.408000000     4.172000000
H    -1.364000000     4.884000000     3.396000000
H    -1.747000000     5.064000000     4.849000000
O     1.307000000    -3.490000000    -6.783000000
H     1.765000000    -4.279000000    -7.074000000
H     1.882000000    -2.770000000    -7.043000000
O    -1.201000000    -0.028000000     5.639000000
H    -2.001000000    -0.360000000     5.232000000
H    -1.466000000     0.211000000     6.527000000
O    -2.469000000    -3.323000000    -5.905000000
H    -2.055000000    -3.768000000    -5.165000000
H    -2.641000000    -2.437000000    -5.585000000
O    -6.576000000    -2.584000000    -1.972000000
H    -6.457000000    -2.998000000    -1.117000000
H    -5.740000000    -2.150000000    -2.147000000
O     1.210000000    -6.362000000    -3.963000000
H     1.204000000    -6.523000000    -4.907000000
H     0.894000000    -5.463000000    -3.871000000
O     0.688000000    -1.904000000     5.492000000
H     0.080000000    -2.642000000     5.450000000
H     0.135000000    -1.131000000     5.381000000
O     0.090000000    -0.085000000    -5.919000000
H     0.241000000    -0.552000000    -5.097000000
H     0.575000000     0.734000000    -5.823000000
O     5.765000000     2.500000000     0.426000000
H     6.289000000     2.947000000     1.091000000
H     5.046000000     3.104000000     0.242000000
