144
-2820.79704
O    -4.659000000    -5.763000000     1.181000000
H    -5.417000000    -6.339000000     1.083000000
H    -4.920000000    -4.948000000     0.753000000
O     4.547000000     1.514000000     4.871000000
H     5.381000000     1.540000000     5.340000000
H     4.095000000     0.750000000     5.228000000
O    -0.030000000    -3.915000000     1.883000000
H     0.413000000    -4.761000000     1.817000000
H    -0.166000000    -3.644000000     0.975000000
O     0.809000000     0.495000000    -5.073000000
H     0.759000000     0.504000000    -6.029000000
H     0.317000000    -0.284000000    -4.814000000
O    -1.352000000    -5.934000000    -4.202000000
H    -2.222000000    -6.322000000    -4.112000000
H    -1.031000000    -5.853000000    -3.303000000
O    -1.786000000     0.168000000     3.486000000
H    -1.107000000    -0.506000000     3.448000000
H    -1.320000000     0.965000000     3.738000000
O    -3.251000000     3.815000000    -0.300000000
H    -3.678000000     3.143000000     0.232000000
H    -3.634000000     3.710000000    -1.171000000
O    -3.784000000    -0.197000000    -2.329000000
H    -3.470000000    -0.880000000    -1.735000000
H    -3.049000000     0.412000000    -2.402000000
O    -1.290000000     1.039000000    -2.488000000
H    -0.802000000     0.723000000    -1.728000000
H    -0.693000000     1.651000000    -2.918000000
O     0.642000000    -1.761000000     3.664000000
H     1.411000000    -1.480000000     3.168000000
H     0.427000000    -2.622000000     3.304000000
O     4.961000000    -0.642000000    -0.501000000
H     5.602000000    -1.279000000    -0.187000000
H     4.577000000    -1.051000000    -1.276000000
O    -5.161000000     2.565000000     4.380000000
H    -5.307000000     1.789000000     3.838000000
H    -4.509000000     2.289000000     5.024000000
O     4.053000000     0.229000000    -5.385000000
H     3.973000000    -0.321000000    -4.606000000
H     3.995000000     1.125000000    -5.053000000
O    -4.279000000    -1.408000000     4.209000000
H    -3.457000000    -1.366000000     3.719000000
H    -4.506000000    -2.338000000     4.217000000
O     1.467000000    -4.473000000    -2.712000000
H     0.626000000    -4.870000000    -2.483000000
H     2.038000000    -5.217000000    -2.905000000
O    -4.271000000    -4.024000000     3.338000000
H    -4.052000000    -4.740000000     2.743000000
H    -5.149000000    -3.752000000     3.073000000
O    -7.849000000    -4.200000000     0.362000000
H    -7.555000000    -4.337000000     1.263000000
H    -7.070000000    -3.884000000    -0.098000000
O     1.175000000     6.189000000    -2.568000000
H     1.792000000     6.529000000    -1.921000000
H     1.659000000     5.499000000    -3.022000000
O    -3.509000000     0.713000000     5.589000000
H    -2.885000000     0.659000000     4.865000000
H    -4.027000000    -0.089000000     5.518000000
O     3.970000000    -3.452000000     2.245000000
H     3.554000000    -4.288000000     2.038000000
H     3.287000000    -2.799000000     2.090000000
O    -6.576000000    -0.689000000     2.923000000
H    -6.228000000    -0.957000000     2.073000000
H    -5.801000000    -0.476000000     3.443000000
O     0.692000000     2.591000000    -3.101000000
H     0.888000000     1.887000000    -3.718000000
H     1.549000000     2.924000000    -2.835000000
O    -1.471000000     4.237000000    -2.408000000
H    -1.814000000     4.047000000    -1.535000000
H    -0.614000000     3.811000000    -2.427000000
O    -0.360000000     2.579000000     4.336000000
H     0.510000000     2.808000000     4.008000000
H    -0.230000000     2.424000000     5.271000000
O    -5.402000000    -3.702000000    -0.618000000
H    -5.485000000    -3.584000000    -1.564000000
H    -4.605000000    -3.224000000    -0.387000000
O     2.359000000    -2.360000000    -5.886000000
H     1.599000000    -2.296000000    -5.309000000
H     3.102000000    -2.126000000    -5.330000000
O     0.239000000    -6.568000000     2.269000000
H     0.285000000    -7.185000000     3.000000000
H    -0.658000000    -6.647000000     1.946000000
O     4.689000000    -1.804000000    -2.980000000
H     4.284000000    -2.572000000    -2.575000000
H     5.612000000    -2.040000000    -3.069000000
O    -2.216000000    -6.941000000     1.323000000
H    -2.367000000    -7.737000000     0.813000000
H    -3.076000000    -6.526000000     1.378000000
O     5.469000000     1.976000000    -0.697000000
H     5.190000000     1.063000000    -0.760000000
H     6.081000000     2.090000000    -1.424000000
O     0.361000000     5.776000000     3.848000000
H    -0.189000000     4.993000000     3.800000000
H    -0.249000000     6.504000000     3.731000000
O    -0.658000000    -5.567000000    -1.261000000
H    -1.034000000    -4.712000000    -1.048000000
H    -1.229000000    -6.196000000    -0.820000000
O    -1.867000000     5.076000000     1.939000000
H    -1.931000000     4.345000000     1.325000000
H    -2.460000000     4.842000000     2.653000000
O    -5.424000000    -1.113000000     0.593000000
H    -4.501000000    -1.323000000     0.450000000
H    -5.821000000    -1.178000000    -0.275000000
O     2.980000000     5.671000000     2.982000000
H     2.994000000     6.109000000     2.131000000
H     2.069000000     5.738000000     3.270000000
O     2.450000000     3.242000000     4.272000000
H     2.698000000     4.067000000     3.856000000
H     3.273000000     2.760000000     4.358000000
O    -2.302000000    -3.015000000    -3.331000000
H    -3.248000000    -3.103000000    -3.218000000
H    -1.962000000    -2.924000000    -2.440000000
O     0.230000000    -2.162000000    -4.121000000
H     0.580000000    -2.928000000    -3.665000000
H    -0.622000000    -2.010000000    -3.711000000
O    -5.140000000    -3.650000000    -3.588000000
H    -5.856000000    -3.055000000    -3.810000000
H    -4.708000000    -3.827000000    -4.424000000
O     2.936000000    -5.688000000     0.588000000
H     2.042000000    -5.651000000     0.929000000
H     2.958000000    -6.484000000     0.058000000
O     3.592000000     3.961000000    -2.502000000
H     3.903000000     3.239000000    -1.955000000
H     4.379000000     4.470000000    -2.695000000
O     4.679000000     1.038000000     1.764000000
H     4.465000000     1.587000000     2.519000000
H     4.844000000     1.659000000     1.055000000
O     6.697000000    -0.237000000     2.999000000
H     6.362000000    -0.979000000     3.503000000
H     5.937000000     0.087000000     2.516000000
O    -6.670000000     0.559000000    -2.284000000
H    -6.884000000    -0.287000000    -1.891000000
H    -6.010000000     0.356000000    -2.946000000
O     4.112000000     2.995000000    -5.005000000
H     3.955000000     3.759000000    -5.559000000
H     3.750000000     3.239000000    -4.153000000
O    -5.098000000     1.687000000    -0.101000000
H    -5.029000000     0.885000000     0.418000000
H    -5.553000000     1.418000000    -0.899000000
O     3.727000000    -3.960000000    -1.302000000
H     3.697000000    -4.731000000    -0.736000000
H     2.886000000    -3.964000000    -1.759000000
O     2.798000000    -0.873000000     1.786000000
H     3.529000000    -0.256000000     1.797000000
H     2.360000000    -0.711000000     0.951000000
