144
-2811.68559
O     0.079000000     3.845000000     3.520000000
H    -0.876000000     3.778000000     3.525000000
H     0.372000000     3.131000000     4.087000000
O    -6.223000000    -0.808000000     2.319000000
H    -6.148000000    -1.162000000     3.206000000
H    -6.288000000    -1.581000000     1.758000000
O    -6.878000000    -4.254000000     2.916000000
H    -6.492000000    -4.179000000     2.044000000
H    -7.635000000    -4.828000000     2.795000000
O     6.036000000     0.855000000    -0.606000000
H     5.543000000     0.040000000    -0.510000000
H     5.807000000     1.366000000     0.170000000
O     1.202000000     1.998000000     5.126000000
H     0.527000000     1.833000000     5.785000000
H     1.566000000     1.133000000     4.935000000
O     2.675000000     3.140000000    -2.757000000
H     2.730000000     3.867000000    -2.136000000
H     1.737000000     3.005000000    -2.885000000
O    -3.866000000    -4.933000000    -0.563000000
H    -3.797000000    -5.195000000     0.355000000
H    -3.459000000    -4.067000000    -0.596000000
O    -3.146000000    -1.310000000    -5.440000000
H    -3.713000000    -1.762000000    -6.064000000
H    -2.291000000    -1.725000000    -5.549000000
O     3.499000000    -4.562000000    -3.152000000
H     4.291000000    -4.476000000    -3.683000000
H     2.918000000    -3.874000000    -3.475000000
O     0.539000000     0.608000000    -4.463000000
H    -0.147000000     0.562000000    -5.128000000
H     0.315000000     1.379000000    -3.941000000
O     0.611000000    -4.202000000    -5.624000000
H     0.305000000    -3.447000000    -5.122000000
H     0.124000000    -4.943000000    -5.264000000
O    -1.466000000     3.105000000    -0.554000000
H    -0.928000000     3.254000000     0.223000000
H    -2.366000000     3.227000000    -0.249000000
O    -4.819000000     0.202000000    -3.480000000
H    -4.805000000    -0.597000000    -2.954000000
H    -4.087000000     0.101000000    -4.089000000
O    -0.074000000     3.096000000    -2.822000000
H    -0.769000000     2.796000000    -3.408000000
H    -0.503000000     3.195000000    -1.972000000
O    -0.472000000     6.414000000     4.267000000
H    -0.327000000     5.472000000     4.184000000
H     0.389000000     6.803000000     4.111000000
O     2.143000000    -0.442000000     5.150000000
H     2.216000000    -1.381000000     4.978000000
H     3.014000000    -0.186000000     5.453000000
O    -3.725000000    -5.430000000     2.222000000
H    -3.154000000    -5.553000000     2.980000000
H    -4.005000000    -6.315000000     1.986000000
O     2.080000000     6.382000000    -3.739000000
H     2.282000000     5.955000000    -2.907000000
H     1.625000000     7.187000000    -3.491000000
O     0.445000000    -1.727000000     2.857000000
H     0.620000000    -2.336000000     2.139000000
H     0.079000000    -0.952000000     2.429000000
O    -3.304000000    -2.471000000     2.503000000
H    -3.142000000    -2.461000000     1.560000000
H    -3.442000000    -3.395000000     2.712000000
O     5.373000000     1.183000000     2.056000000
H     5.881000000     0.400000000     2.268000000
H     5.640000000     1.827000000     2.712000000
O     2.915000000    -4.038000000    -0.614000000
H     1.975000000    -4.164000000    -0.481000000
H     3.054000000    -4.238000000    -1.540000000
O    -3.386000000    -3.464000000    -3.825000000
H    -2.747000000    -3.377000000    -3.118000000
H    -3.291000000    -2.659000000    -4.335000000
O    -4.854000000     1.530000000     2.179000000
H    -5.510000000     2.163000000     1.886000000
H    -5.314000000     0.691000000     2.177000000
O    -2.366000000     3.229000000     3.315000000
H    -2.614000000     2.308000000     3.241000000
H    -2.801000000     3.654000000     2.576000000
O    -3.344000000     0.057000000     3.883000000
H    -3.170000000    -0.849000000     3.627000000
H    -3.892000000     0.404000000     3.180000000
O     2.880000000     0.018000000    -5.604000000
H     2.043000000     0.151000000    -5.157000000
H     3.533000000     0.367000000    -4.997000000
O     0.477000000     8.002000000     1.687000000
H     1.318000000     8.323000000     1.364000000
H     0.583000000     7.051000000     1.729000000
O    -0.527000000    -2.128000000    -4.135000000
H    -0.266000000    -1.207000000    -4.143000000
H    -1.017000000    -2.231000000    -3.319000000
O     1.314000000     5.332000000     1.820000000
H     2.155000000     5.529000000     2.231000000
H     0.929000000     4.653000000     2.374000000
O    -2.578000000     0.656000000     6.543000000
H    -1.962000000    -0.074000000     6.604000000
H    -2.935000000     0.594000000     5.657000000
O    -5.123000000    -1.950000000    -1.924000000
H    -4.885000000    -2.679000000    -2.497000000
H    -4.417000000    -1.911000000    -1.279000000
O     4.217000000     0.939000000    -3.040000000
H     4.261000000     0.625000000    -2.137000000
H     3.813000000     1.804000000    -2.973000000
O    -0.337000000    -1.080000000     6.055000000
H     0.532000000    -0.854000000     5.721000000
H    -0.487000000    -1.973000000     5.746000000
O     0.195000000    -4.898000000    -1.812000000
H    -0.089000000    -5.529000000    -2.473000000
H    -0.575000000    -4.351000000    -1.656000000
O    -3.741000000     4.501000000     1.476000000
H    -4.541000000     4.790000000     1.914000000
H    -3.906000000     4.661000000     0.546000000
O     7.176000000     3.541000000    -1.646000000
H     6.544000000     2.823000000    -1.598000000
H     7.853000000     3.224000000    -2.244000000
O    -6.673000000    -5.416000000    -0.180000000
H    -5.805000000    -5.083000000    -0.409000000
H    -7.266000000    -4.978000000    -0.790000000
O    -6.743000000    -2.604000000     0.504000000
H    -7.533000000    -3.132000000     0.388000000
H    -6.600000000    -2.196000000    -0.350000000
O    -0.911000000    -6.304000000    -3.690000000
H    -1.820000000    -6.404000000    -3.407000000
H    -0.728000000    -7.100000000    -4.189000000
O     2.052000000     4.581000000     6.254000000
H     2.953000000     4.882000000     6.136000000
H     1.913000000     3.956000000     5.542000000
O     2.077000000    -2.430000000    -4.046000000
H     2.194000000    -2.024000000    -4.906000000
H     1.131000000    -2.409000000    -3.899000000
O    -1.435000000     6.181000000    -1.722000000
H    -1.380000000     6.058000000    -2.669000000
H    -1.820000000     5.368000000    -1.396000000
O    -3.558000000    -6.006000000    -3.167000000
H    -3.778000000    -6.201000000    -2.256000000
H    -3.598000000    -5.051000000    -3.224000000
O     2.665000000     5.245000000    -0.866000000
H     1.846000000     5.556000000    -0.479000000
H     3.236000000     5.079000000    -0.116000000
O     4.509000000     4.188000000     1.055000000
H     4.328000000     3.312000000     1.393000000
H     5.332000000     4.442000000     1.473000000
O     5.090000000    -1.747000000    -0.819000000
H     4.314000000    -2.306000000    -0.781000000
H     5.680000000    -2.197000000    -1.423000000
O    -0.135000000    -3.765000000     0.860000000
H    -0.590000000    -4.318000000     1.495000000
H    -0.128000000    -4.281000000     0.054000000
