144
-2827.90475
O     0.325000000     4.875000000     2.252000000
H    -0.477000000     4.435000000     1.969000000
H     0.615000000     4.375000000     3.015000000
O    -5.576000000     0.706000000     3.900000000
H    -4.991000000     0.019000000     3.581000000
H    -6.423000000     0.272000000     4.001000000
O    -6.540000000    -4.539000000     3.889000000
H    -6.138000000    -3.853000000     3.357000000
H    -6.963000000    -5.117000000     3.254000000
O     5.911000000     1.829000000     0.414000000
H     6.015000000     0.881000000     0.341000000
H     6.002000000     2.009000000     1.350000000
O     1.801000000     2.990000000     4.065000000
H     1.333000000     2.176000000     3.880000000
H     2.691000000     2.710000000     4.280000000
O     1.056000000     4.087000000    -2.438000000
H     1.436000000     4.238000000    -1.573000000
H     0.407000000     3.398000000    -2.298000000
O    -3.092000000    -4.757000000     1.161000000
H    -2.868000000    -4.375000000     2.009000000
H    -2.600000000    -4.236000000     0.526000000
O    -2.807000000    -1.154000000    -4.959000000
H    -3.375000000    -1.756000000    -5.440000000
H    -2.147000000    -0.885000000    -5.597000000
O     2.799000000    -5.203000000    -3.375000000
H     2.103000000    -5.817000000    -3.138000000
H     3.481000000    -5.752000000    -3.761000000
O     1.625000000    -0.086000000    -3.806000000
H     1.379000000     0.596000000    -4.430000000
H     0.857000000    -0.656000000    -3.759000000
O    -2.262000000    -4.551000000    -5.969000000
H    -1.994000000    -4.370000000    -5.069000000
H    -1.578000000    -5.128000000    -6.311000000
O    -0.979000000    -1.091000000     4.249000000
H    -0.672000000    -1.682000000     4.937000000
H    -1.671000000    -1.581000000     3.804000000
O    -3.777000000     2.672000000    -0.186000000
H    -3.567000000     2.740000000     0.746000000
H    -4.354000000     1.911000000    -0.247000000
O    -4.741000000     0.018000000    -0.912000000
H    -4.236000000    -0.553000000    -0.333000000
H    -4.241000000     0.034000000    -1.728000000
O    -3.336000000     0.952000000    -3.121000000
H    -3.689000000     1.617000000    -3.712000000
H    -3.047000000     0.247000000    -3.701000000
O    -1.065000000     2.427000000    -2.241000000
H    -1.747000000     1.909000000    -2.668000000
H    -1.056000000     2.114000000    -1.337000000
O     4.409000000     2.300000000     4.779000000
H     4.527000000     1.351000000     4.823000000
H     5.000000000     2.582000000     4.081000000
O    -2.459000000    -3.589000000     3.829000000
H    -1.661000000    -4.117000000     3.867000000
H    -3.042000000    -3.989000000     4.475000000
O     2.263000000    -2.083000000     3.296000000
H     2.051000000    -2.555000000     2.491000000
H     1.976000000    -1.185000000     3.131000000
O    -4.142000000    -1.504000000     2.943000000
H    -4.035000000    -1.619000000     1.999000000
H    -3.592000000    -2.184000000     3.332000000
O     6.595000000     2.650000000     3.266000000
H     7.137000000     1.968000000     3.663000000
H     7.124000000     3.445000000     3.334000000
O     4.188000000    -2.911000000    -0.797000000
H     3.550000000    -3.165000000    -0.129000000
H     3.703000000    -2.960000000    -1.621000000
O    -4.407000000    -3.644000000    -3.199000000
H    -3.578000000    -3.954000000    -2.835000000
H    -4.154000000    -2.975000000    -3.836000000
O    -7.368000000    -1.231000000    -1.681000000
H    -6.569000000    -1.453000000    -1.204000000
H    -7.361000000    -1.810000000    -2.443000000
O    -4.643000000     2.882000000     2.764000000
H    -5.348000000     3.515000000     2.899000000
H    -4.846000000     2.166000000     3.366000000
O    -2.399000000     4.086000000     2.112000000
H    -3.026000000     3.564000000     2.614000000
H    -2.944000000     4.653000000     1.566000000
O     3.725000000     4.505000000    -3.093000000
H     4.179000000     3.668000000    -2.993000000
H     2.849000000     4.345000000    -2.741000000
O     4.334000000     0.155000000    -3.970000000
H     3.388000000     0.051000000    -3.865000000
H     4.559000000     0.888000000    -3.397000000
O    -1.487000000    -4.035000000    -3.359000000
H    -0.589000000    -3.843000000    -3.629000000
H    -1.607000000    -3.535000000    -2.552000000
O    -7.319000000     1.490000000    -0.145000000
H    -6.553000000     1.264000000    -0.673000000
H    -7.710000000     0.647000000     0.082000000
O    -0.213000000     7.097000000     0.533000000
H     0.092000000     6.422000000     1.140000000
H    -0.778000000     6.629000000    -0.081000000
O    -6.042000000     4.407000000    -0.247000000
H    -5.244000000     4.003000000    -0.587000000
H    -6.653000000     4.387000000    -0.983000000
O    -5.562000000    -2.937000000    -0.682000000
H    -5.251000000    -3.226000000    -1.540000000
H    -4.764000000    -2.739000000    -0.193000000
O     5.411000000     2.240000000    -2.498000000
H     6.288000000     2.619000000    -2.558000000
H     5.326000000     1.976000000    -1.582000000
O     0.112000000    -5.207000000     3.667000000
H     0.432000000    -6.105000000     3.755000000
H     0.805000000    -4.752000000     3.188000000
O     0.877000000     0.244000000     3.058000000
H     0.248000000    -0.232000000     3.600000000
H     0.506000000     0.209000000     2.176000000
O    -1.606000000    -6.951000000     1.113000000
H    -2.207000000    -6.216000000     1.230000000
H    -1.968000000    -7.441000000     0.374000000
O    -0.005000000    -4.821000000    -0.409000000
H    -0.804000000    -4.330000000    -0.601000000
H    -0.315000000    -5.679000000    -0.120000000
O    -5.904000000    -5.453000000     0.645000000
H    -5.055000000    -5.306000000     1.060000000
H    -6.106000000    -4.624000000     0.212000000
O    -7.002000000    -2.527000000     1.889000000
H    -7.603000000    -3.161000000     1.497000000
H    -6.510000000    -2.174000000     1.148000000
O     1.044000000    -3.328000000    -4.192000000
H     1.451000000    -3.011000000    -4.999000000
H     1.613000000    -4.041000000    -3.901000000
O    -1.416000000     4.996000000    -1.190000000
H    -1.022000000     4.660000000    -1.995000000
H    -2.030000000     4.313000000    -0.919000000
O    -1.755000000    -6.694000000    -2.645000000
H    -1.647000000    -5.789000000    -2.939000000
H    -2.435000000    -6.647000000    -1.973000000
O     2.442000000     5.449000000    -0.365000000
H     2.229000000     6.025000000     0.370000000
H     3.290000000     5.071000000    -0.135000000
O     4.307000000    -0.369000000     4.823000000
H     4.579000000    -1.100000000     5.378000000
H     3.966000000    -0.785000000     4.031000000
O     5.284000000     4.519000000     0.618000000
H     5.473000000     3.581000000     0.626000000
H     5.096000000     4.733000000     1.532000000
O     6.129000000    -0.797000000    -0.064000000
H     6.968000000    -1.107000000    -0.404000000
H     5.486000000    -1.414000000    -0.414000000
O     2.068000000    -3.847000000     1.139000000
H     2.508000000    -4.611000000     1.511000000
H     1.519000000    -4.204000000     0.440000000
