144
-2813.85155
O     0.873000000     5.818000000    -1.563000000
H     0.343000000     5.039000000    -1.735000000
H     1.753000000     5.577000000    -1.854000000
O    -6.571000000    -3.822000000     3.938000000
H    -6.417000000    -3.193000000     3.232000000
H    -5.841000000    -4.437000000     3.873000000
O    -5.152000000    -6.001000000    -0.178000000
H    -4.529000000    -6.728000000    -0.186000000
H    -6.009000000    -6.421000000    -0.104000000
O     4.488000000     1.008000000     4.547000000
H     4.755000000     1.770000000     4.033000000
H     3.547000000     1.126000000     4.681000000
O     1.094000000     0.139000000    -4.751000000
H     1.041000000    -0.129000000    -3.833000000
H     2.032000000     0.157000000    -4.941000000
O    -4.852000000     3.790000000     2.718000000
H    -4.531000000     4.602000000     2.326000000
H    -4.256000000     3.115000000     2.392000000
O    -2.825000000    -5.565000000    -4.633000000
H    -2.930000000    -4.916000000    -3.937000000
H    -3.233000000    -6.358000000    -4.284000000
O    -1.084000000    -0.605000000     6.182000000
H    -1.972000000    -0.442000000     6.500000000
H    -0.719000000     0.267000000     6.035000000
O     0.199000000     6.539000000     1.040000000
H     0.483000000     6.394000000     0.137000000
H    -0.131000000     5.687000000     1.326000000
O    -2.380000000     1.511000000    -2.475000000
H    -2.439000000     0.556000000    -2.442000000
H    -2.271000000     1.712000000    -3.405000000
O    -5.382000000     0.662000000     0.180000000
H    -5.786000000     0.047000000    -0.432000000
H    -4.788000000     0.124000000     0.704000000
O     4.202000000    -0.818000000     2.441000000
H     3.368000000    -1.197000000     2.718000000
H     4.400000000    -0.160000000     3.107000000
O     5.074000000    -0.755000000    -2.748000000
H     5.147000000     0.198000000    -2.695000000
H     5.001000000    -1.041000000    -1.837000000
O     3.648000000    -1.335000000    -4.874000000
H     4.192000000    -1.718000000    -5.563000000
H     4.259000000    -1.148000000    -4.162000000
O    -4.560000000    -5.621000000     3.481000000
H    -3.978000000    -5.323000000     2.782000000
H    -4.689000000    -6.553000000     3.303000000
O    -2.826000000     1.969000000     3.655000000
H    -3.069000000     1.173000000     3.182000000
H    -3.174000000     1.838000000     4.537000000
O    -1.433000000    -3.004000000     4.869000000
H    -1.185000000    -2.082000000     4.937000000
H    -2.376000000    -3.012000000     5.032000000
O     5.119000000     1.847000000    -3.360000000
H     4.200000000     1.818000000    -3.625000000
H     5.606000000     1.821000000    -4.184000000
O    -5.469000000     0.540000000    -4.143000000
H    -4.784000000    -0.001000000    -3.749000000
H    -5.058000000     1.395000000    -4.264000000
O     7.406000000     0.739000000    -0.073000000
H     7.844000000     1.412000000    -0.595000000
H     8.055000000     0.484000000     0.582000000
O    -0.023000000    -3.968000000    -2.091000000
H    -0.918000000    -4.136000000    -2.384000000
H     0.336000000    -4.836000000    -1.906000000
O    -0.357000000     0.355000000    -6.779000000
H    -0.857000000    -0.434000000    -6.988000000
H     0.154000000     0.118000000    -6.006000000
O    -3.634000000    -4.123000000     1.217000000
H    -4.238000000    -4.611000000     0.658000000
H    -3.843000000    -3.203000000     1.051000000
O    -6.376000000    -2.524000000     1.531000000
H    -7.147000000    -3.075000000     1.392000000
H    -6.086000000    -2.292000000     0.649000000
O    -0.196000000     3.298000000    -1.562000000
H    -1.004000000     2.895000000    -1.880000000
H     0.496000000     2.699000000    -1.843000000
O     1.868000000    -3.099000000    -5.737000000
H     2.396000000    -2.316000000    -5.585000000
H     2.453000000    -3.696000000    -6.203000000
O     1.837000000     2.682000000    -3.207000000
H     1.135000000     2.328000000    -3.753000000
H     2.384000000     3.180000000    -3.814000000
O    -5.682000000    -2.204000000    -1.236000000
H    -5.675000000    -2.494000000    -2.148000000
H    -4.760000000    -2.194000000    -0.981000000
O     2.543000000    -5.146000000    -3.633000000
H     3.308000000    -4.874000000    -3.127000000
H     2.206000000    -4.335000000    -4.013000000
O    -7.524000000    -0.372000000    -2.828000000
H    -6.814000000     0.073000000    -3.290000000
H    -7.210000000    -1.269000000    -2.714000000
O     0.159000000     2.788000000     5.919000000
H     0.455000000     3.504000000     5.357000000
H     0.967000000     2.387000000     6.241000000
O     1.936000000    -2.868000000    -0.596000000
H     1.153000000    -3.099000000    -1.095000000
H     1.844000000    -1.930000000    -0.426000000
O    -1.279000000    -5.656000000     1.654000000
H    -1.744000000    -6.282000000     1.100000000
H    -1.826000000    -4.870000000     1.639000000
O     5.870000000     3.596000000    -1.168000000
H     5.371000000     3.078000000    -1.799000000
H     5.209000000     3.947000000    -0.570000000
O     1.869000000     4.162000000     2.183000000
H     1.067000000     3.680000000     1.981000000
H     1.626000000     4.740000000     2.906000000
O    -2.782000000    -4.548000000    -1.956000000
H    -2.985000000    -3.709000000    -1.544000000
H    -2.767000000    -5.173000000    -1.232000000
O    -0.890000000     3.849000000     1.566000000
H    -0.965000000     3.201000000     0.866000000
H    -1.679000000     3.723000000     2.094000000
O     5.852000000     2.590000000     2.645000000
H     6.174000000     1.751000000     2.317000000
H     6.642000000     3.112000000     2.786000000
O    -4.117000000    -1.579000000     3.471000000
H    -3.704000000    -1.739000000     2.623000000
H    -5.018000000    -1.882000000     3.359000000
O     4.583000000     6.896000000    -0.125000000
H     4.359000000     6.471000000    -0.953000000
H     4.657000000     6.176000000     0.502000000
O     4.529000000     4.606000000     1.252000000
H     3.606000000     4.443000000     1.444000000
H     5.001000000     3.973000000     1.794000000
O    -3.224000000    -1.175000000    -3.460000000
H    -2.532000000    -1.500000000    -4.037000000
H    -3.083000000    -1.638000000    -2.634000000
O    -0.551000000    -2.241000000    -4.423000000
H    -0.276000000    -3.004000000    -3.916000000
H     0.167000000    -2.090000000    -5.037000000
O    -5.688000000    -2.748000000    -3.888000000
H    -6.028000000    -2.939000000    -4.762000000
H    -4.867000000    -2.283000000    -4.047000000
O     5.565000000    -1.409000000    -0.070000000
H     4.986000000    -1.279000000     0.681000000
H     6.265000000    -0.768000000     0.054000000
O     4.352000000    -3.792000000    -1.339000000
H     3.423000000    -3.738000000    -1.118000000
H     4.693000000    -2.917000000    -1.157000000
O    -3.353000000     2.598000000    -0.105000000
H    -4.063000000     1.993000000     0.112000000
H    -2.805000000     2.111000000    -0.721000000
O     1.819000000    -1.272000000     3.938000000
H     0.865000000    -1.345000000     3.913000000
H     2.068000000    -1.668000000     4.774000000
