144
-2841.12885
O     0.638000000     0.996000000     6.875000000
H     0.294000000     1.347000000     6.054000000
H     1.485000000     0.618000000     6.638000000
O     0.834000000    -4.351000000    -0.461000000
H     0.593000000    -3.901000000    -1.271000000
H     1.331000000    -5.116000000    -0.752000000
O     2.639000000    -1.778000000     4.009000000
H     3.442000000    -2.298000000     4.042000000
H     2.149000000    -2.141000000     3.271000000
O    -3.675000000     2.070000000     3.859000000
H    -3.918000000     1.709000000     4.711000000
H    -2.904000000     2.609000000     4.038000000
O    -6.434000000    -1.682000000    -3.483000000
H    -6.274000000    -1.350000000    -2.599000000
H    -5.735000000    -2.318000000    -3.630000000
O    -0.668000000    -3.591000000    -2.781000000
H    -1.265000000    -2.849000000    -2.686000000
H    -1.229000000    -4.362000000    -2.697000000
O     0.948000000     0.358000000     4.086000000
H     1.413000000     1.194000000     4.048000000
H     1.641000000    -0.300000000     4.136000000
O     5.083000000    -0.834000000    -0.498000000
H     5.145000000    -1.376000000     0.288000000
H     4.598000000    -1.374000000    -1.123000000
O    -6.076000000    -0.138000000    -1.308000000
H    -6.397000000    -0.364000000    -0.435000000
H    -5.127000000    -0.247000000    -1.249000000
O    -4.878000000     4.778000000     0.709000000
H    -5.727000000     4.426000000     0.443000000
H    -4.390000000     4.017000000     1.023000000
O     1.820000000    -2.319000000     1.426000000
H     1.389000000    -3.080000000     1.038000000
H     1.790000000    -1.651000000     0.741000000
O     2.874000000    -0.975000000    -4.995000000
H     2.342000000    -1.525000000    -4.420000000
H     3.257000000    -1.585000000    -5.625000000
O    -7.401000000    -4.478000000    -0.875000000
H    -7.048000000    -5.347000000    -0.681000000
H    -6.646000000    -3.978000000    -1.186000000
O    -7.376000000     2.263000000    -2.211000000
H    -7.207000000     2.464000000    -3.131000000
H    -6.982000000     1.401000000    -2.078000000
O    -5.019000000     0.009000000    -5.257000000
H    -5.724000000    -0.535000000    -4.906000000
H    -4.226000000    -0.331000000    -4.841000000
O     6.168000000     3.400000000    -1.067000000
H     6.732000000     3.079000000    -0.363000000
H     5.557000000     3.995000000    -0.632000000
O    -3.455000000    -4.384000000     1.743000000
H    -3.080000000    -4.174000000     0.888000000
H    -3.953000000    -3.603000000     1.985000000
O    -7.445000000    -2.019000000     0.600000000
H    -7.140000000    -2.506000000     1.366000000
H    -8.186000000    -2.528000000     0.273000000
O     3.237000000     1.399000000    -4.095000000
H     2.998000000     0.578000000    -4.526000000
H     4.191000000     1.366000000    -4.029000000
O    -0.360000000     3.455000000     2.996000000
H    -0.871000000     2.786000000     2.541000000
H    -0.934000000     4.221000000     3.018000000
O     3.155000000     3.011000000    -1.595000000
H     2.203000000     2.973000000    -1.512000000
H     3.362000000     2.378000000    -2.283000000
O     6.778000000    -0.520000000     4.725000000
H     6.561000000    -0.286000000     5.628000000
H     6.239000000     0.064000000     4.191000000
O    -6.826000000     1.005000000     1.543000000
H    -6.952000000     1.927000000     1.320000000
H    -7.400000000     0.859000000     2.295000000
O     5.491000000     1.038000000     2.656000000
H     6.260000000     0.792000000     2.143000000
H     4.750000000     0.696000000     2.156000000
O     0.090000000     0.353000000    -5.059000000
H     0.868000000    -0.171000000    -5.252000000
H     0.436000000     1.210000000    -4.810000000
O    -4.801000000    -3.204000000    -0.864000000
H    -4.170000000    -2.760000000    -1.429000000
H    -4.907000000    -2.617000000    -0.115000000
O    -1.281000000    -3.920000000     3.354000000
H    -1.359000000    -2.970000000     3.437000000
H    -2.032000000    -4.176000000     2.819000000
O     1.936000000     3.253000000     4.443000000
H     1.108000000     3.599000000     4.110000000
H     2.564000000     3.417000000     3.739000000
O     4.891000000    -2.699000000     1.389000000
H     3.941000000    -2.794000000     1.459000000
H     5.197000000    -2.674000000     2.295000000
O     4.311000000     3.792000000     3.306000000
H     4.746000000     3.052000000     2.882000000
H     5.010000000     4.239000000     3.783000000
O    -4.199000000    -3.137000000    -3.627000000
H    -3.544000000    -2.608000000    -3.171000000
H    -3.687000000    -3.756000000    -4.147000000
O     3.455000000    -2.408000000    -1.899000000
H     2.911000000    -3.176000000    -1.725000000
H     4.205000000    -2.751000000    -2.387000000
O     3.115000000     6.573000000     4.177000000
H     3.249000000     5.802000000     3.626000000
H     2.609000000     6.251000000     4.923000000
O    -2.586000000    -5.186000000    -1.886000000
H    -3.235000000    -4.606000000    -1.488000000
H    -2.956000000    -6.063000000    -1.788000000
O    -4.242000000     1.929000000     0.961000000
H    -3.924000000     1.623000000     1.810000000
H    -4.918000000     1.297000000     0.716000000
O     5.257000000    -2.733000000     3.969000000
H     5.918000000    -2.087000000     4.219000000
H     5.397000000    -3.464000000     4.571000000
O    -4.705000000    -1.683000000     1.642000000
H    -4.330000000    -1.270000000     0.865000000
H    -5.622000000    -1.410000000     1.641000000
O    -2.373000000    -1.032000000    -4.954000000
H    -1.692000000    -0.362000000    -4.887000000
H    -2.422000000    -1.413000000    -4.078000000
O     4.127000000     5.018000000    -0.111000000
H     3.607000000     4.420000000    -0.648000000
H     4.099000000     4.637000000     0.767000000
O    -2.927000000    -4.341000000    -5.657000000
H    -2.315000000    -3.778000000    -6.132000000
H    -3.745000000    -4.274000000    -6.149000000
O     3.007000000    -0.584000000     6.500000000
H     3.835000000    -0.120000000     6.622000000
H     3.127000000    -1.080000000     5.691000000
O     1.282000000     3.109000000    -4.487000000
H     2.083000000     2.648000000    -4.240000000
H     0.817000000     3.242000000    -3.661000000
O     5.881000000     1.181000000    -2.693000000
H     6.207000000     1.912000000    -2.169000000
H     5.583000000     0.538000000    -2.049000000
O    -1.117000000    -2.786000000    -7.243000000
H    -0.846000000    -2.537000000    -6.359000000
H    -1.707000000    -2.085000000    -7.519000000
O    -2.285000000     2.869000000    -0.826000000
H    -2.943000000     2.412000000    -0.302000000
H    -2.579000000     3.780000000    -0.837000000
O     0.250000000     3.513000000    -1.772000000
H     0.068000000     4.367000000    -1.381000000
H    -0.545000000     3.003000000    -1.613000000
O    -1.160000000    -1.361000000     3.671000000
H    -1.886000000    -0.953000000     3.198000000
H    -0.389000000    -0.861000000     3.403000000
O     0.953000000    -3.268000000    -4.884000000
H     0.626000000    -3.196000000    -3.987000000
H     0.553000000    -4.071000000    -5.221000000
