144
-2778.38133
O    -3.642000000     3.903000000     4.262000000
H    -3.606000000     4.776000000     4.652000000
H    -4.161000000     4.017000000     3.466000000
O     3.758000000    -0.584000000     6.809000000
H     2.974000000    -0.845000000     6.327000000
H     3.430000000    -0.039000000     7.524000000
O     2.417000000    -2.259000000    -4.285000000
H     1.852000000    -1.626000000    -4.727000000
H     2.789000000    -2.784000000    -4.993000000
O    -3.935000000     5.004000000    -5.672000000
H    -4.832000000     4.671000000    -5.690000000
H    -3.425000000     4.300000000    -5.272000000
O     6.282000000    -2.928000000     2.724000000
H     5.951000000    -3.001000000     1.828000000
H     5.497000000    -2.950000000     3.271000000
O     2.872000000    -6.555000000    -0.816000000
H     3.295000000    -5.828000000    -0.358000000
H     2.989000000    -6.353000000    -1.745000000
O    -1.122000000     3.908000000    -1.388000000
H    -1.874000000     3.421000000    -1.726000000
H    -1.472000000     4.405000000    -0.648000000
O    -5.337000000     0.093000000     2.589000000
H    -5.818000000     0.521000000     3.297000000
H    -4.473000000    -0.085000000     2.960000000
O    -5.415000000     2.436000000    -2.342000000
H    -4.540000000     2.229000000    -2.014000000
H    -6.010000000     2.004000000    -1.729000000
O    -6.578000000    -0.295000000    -3.852000000
H    -6.492000000    -0.899000000    -3.115000000
H    -5.693000000    -0.225000000    -4.210000000
O     3.876000000    -3.270000000     4.292000000
H     3.099000000    -2.744000000     4.478000000
H     3.564000000    -3.961000000     3.708000000
O    -6.447000000     4.048000000     2.457000000
H    -5.652000000     3.585000000     2.193000000
H    -6.303000000     4.951000000     2.175000000
O     3.574000000     2.382000000    -1.804000000
H     4.161000000     1.762000000    -1.371000000
H     2.754000000     2.316000000    -1.316000000
O    -3.778000000     0.855000000     4.512000000
H    -3.557000000     0.183000000     5.157000000
H    -4.159000000     1.566000000     5.027000000
O    -0.842000000     1.250000000     6.943000000
H    -0.716000000     1.365000000     6.001000000
H    -1.683000000     0.799000000     7.019000000
O    -0.019000000     6.087000000    -2.967000000
H     0.639000000     5.831000000    -3.613000000
H    -0.296000000     5.263000000    -2.567000000
O    -3.025000000    -1.688000000    -1.922000000
H    -3.503000000    -1.569000000    -1.102000000
H    -2.881000000    -0.799000000    -2.246000000
O     0.841000000     0.136000000    -5.563000000
H     1.304000000     0.707000000    -4.949000000
H     1.384000000     0.140000000    -6.351000000
O    -4.299000000     2.978000000     1.313000000
H    -3.952000000     2.824000000     0.434000000
H    -3.716000000     2.487000000     1.891000000
O     3.696000000    -5.206000000     2.148000000
H     3.722000000    -4.399000000     1.633000000
H     4.398000000    -5.745000000     1.785000000
O     3.132000000     2.821000000     2.076000000
H     4.004000000     3.048000000     1.756000000
H     2.551000000     2.998000000     1.337000000
O     2.393000000     5.371000000     3.596000000
H     2.173000000     5.023000000     4.460000000
H     2.558000000     4.595000000     3.061000000
O     4.540000000    -3.029000000    -2.480000000
H     4.764000000    -3.935000000    -2.691000000
H     3.651000000    -2.918000000    -2.819000000
O    -3.857000000    -0.198000000    -4.668000000
H    -3.301000000     0.208000000    -4.004000000
H    -3.845000000     0.419000000    -5.400000000
O    -0.861000000    -3.856000000    -2.014000000
H    -1.220000000    -3.020000000    -1.716000000
H    -0.830000000    -4.398000000    -1.226000000
O     5.137000000     1.022000000    -0.415000000
H     5.008000000     1.459000000     0.427000000
H     6.004000000     0.622000000    -0.347000000
O    -0.988000000     1.884000000     4.165000000
H    -0.750000000     2.572000000     3.544000000
H    -1.944000000     1.906000000     4.193000000
O    -2.448000000     2.790000000    -4.689000000
H    -2.817000000     2.266000000    -3.978000000
H    -2.739000000     2.350000000    -5.488000000
O    -1.024000000    -0.167000000    -7.367000000
H    -0.433000000    -0.124000000    -6.615000000
H    -0.986000000    -1.081000000    -7.650000000
O     0.040000000     4.172000000    -5.016000000
H     0.766000000     3.550000000    -4.977000000
H    -0.734000000     3.652000000    -4.800000000
O    -6.578000000     1.305000000     0.028000000
H    -5.863000000     1.759000000     0.474000000
H    -7.357000000     1.820000000     0.240000000
O     1.495000000     2.908000000    -0.022000000
H     1.062000000     2.127000000     0.325000000
H     0.787000000     3.419000000    -0.415000000
O     1.709000000    -6.431000000     3.569000000
H     0.858000000    -6.353000000     3.139000000
H     2.256000000    -5.775000000     3.138000000
O    -4.097000000    -1.452000000     0.514000000
H    -4.302000000    -0.517000000     0.520000000
H    -3.914000000    -1.663000000     1.430000000
O     5.949000000    -0.672000000     5.127000000
H     5.630000000    -0.433000000     4.256000000
H     5.155000000    -0.806000000     5.644000000
O    -3.927000000    -3.795000000    -3.402000000
H    -4.823000000    -3.763000000    -3.069000000
H    -3.458000000    -3.135000000    -2.891000000
O    -1.017000000    -1.144000000     4.478000000
H    -1.847000000    -1.516000000     4.777000000
H    -1.255000000    -0.596000000     3.730000000
O     3.580000000     0.714000000     3.833000000
H     3.395000000     1.381000000     3.173000000
H     2.719000000     0.384000000     4.089000000
O     5.186000000    -4.119000000     0.080000000
H     6.064000000    -4.428000000    -0.143000000
H     4.936000000    -3.556000000    -0.653000000
O     1.711000000    -2.012000000     5.364000000
H     1.583000000    -2.611000000     6.100000000
H     0.829000000    -1.721000000     5.136000000
O    -7.255000000     4.627000000    -1.926000000
H    -7.856000000     4.492000000    -2.658000000
H    -6.432000000     4.235000000    -2.216000000
O    -2.298000000     5.802000000     0.380000000
H    -2.705000000     6.204000000    -0.386000000
H    -2.557000000     6.363000000     1.112000000
O    -0.730000000    -4.361000000     3.110000000
H    -0.361000000    -3.831000000     3.816000000
H    -1.198000000    -5.066000000     3.559000000
O     0.275000000    -4.141000000    -4.394000000
H    -0.296000000    -4.201000000    -3.629000000
H     1.105000000    -3.812000000    -4.048000000
O    -3.822000000    -2.744000000    -6.080000000
H    -3.486000000    -1.908000000    -5.758000000
H    -4.067000000    -3.224000000    -5.289000000
O     2.158000000     2.359000000    -4.359000000
H     3.000000000     2.208000000    -4.789000000
H     2.355000000     2.304000000    -3.423000000
O    -6.303000000     3.931000000    -4.706000000
H    -6.448000000     3.462000000    -5.529000000
H    -5.748000000     3.345000000    -4.192000000
O    -1.001000000    -5.126000000     0.369000000
H    -0.415000000    -5.879000000     0.291000000
H    -0.819000000    -4.771000000     1.240000000
