144
-2820.88783
O     4.057000000    -0.944000000     3.080000000
H     4.074000000    -1.721000000     2.522000000
H     3.256000000    -0.485000000     2.827000000
O    -1.954000000    -1.977000000    -2.744000000
H    -1.682000000    -1.068000000    -2.874000000
H    -1.166000000    -2.420000000    -2.430000000
O     1.006000000     1.396000000    -6.847000000
H     0.757000000     1.090000000    -5.975000000
H     1.133000000     0.595000000    -7.355000000
O     1.997000000    -0.874000000    -4.971000000
H     2.884000000    -1.221000000    -4.870000000
H     1.803000000    -0.980000000    -5.902000000
O     3.640000000     2.127000000    -2.595000000
H     3.743000000     1.797000000    -1.702000000
H     2.748000000     2.474000000    -2.620000000
O    -4.029000000    -2.963000000    -0.940000000
H    -4.385000000    -3.742000000    -1.368000000
H    -3.552000000    -2.506000000    -1.632000000
O     4.172000000     0.359000000    -0.464000000
H     4.298000000    -0.414000000    -1.014000000
H     4.969000000     0.410000000     0.064000000
O     3.815000000     2.069000000    -5.849000000
H     2.987000000     1.719000000    -6.176000000
H     3.727000000     2.043000000    -4.896000000
O     0.955000000     6.042000000    -1.637000000
H     1.012000000     5.610000000    -2.489000000
H     0.562000000     5.387000000    -1.061000000
O    -4.459000000     0.498000000     2.785000000
H    -5.363000000     0.692000000     2.537000000
H    -4.202000000    -0.220000000     2.206000000
O    -2.410000000    -1.296000000     6.446000000
H    -2.834000000    -1.993000000     5.946000000
H    -2.930000000    -0.515000000     6.257000000
O    -0.222000000    -6.012000000     0.495000000
H    -0.083000000    -5.517000000     1.303000000
H    -1.173000000    -6.028000000     0.385000000
O     6.005000000     3.742000000    -3.559000000
H     5.232000000     3.192000000    -3.432000000
H     6.708000000     3.275000000    -3.107000000
O    -2.728000000    -3.388000000     3.682000000
H    -3.209000000    -2.777000000     3.125000000
H    -2.314000000    -3.996000000     3.070000000
O     2.397000000    -6.407000000    -0.074000000
H     2.760000000    -6.026000000     0.726000000
H     1.449000000    -6.342000000     0.039000000
O    -3.212000000     6.946000000    -2.313000000
H    -3.072000000     7.890000000    -2.391000000
H    -2.891000000     6.588000000    -3.141000000
O     0.221000000    -4.330000000    -2.204000000
H    -0.179000000    -4.831000000    -2.914000000
H    -0.021000000    -4.806000000    -1.409000000
O     4.779000000     4.471000000    -0.393000000
H     5.521000000     3.888000000    -0.551000000
H     4.354000000     4.555000000    -1.247000000
O    -2.881000000     0.683000000    -4.782000000
H    -3.400000000     1.162000000    -4.136000000
H    -1.985000000     0.988000000    -4.642000000
O     0.764000000     4.564000000    -4.200000000
H     1.493000000     4.695000000    -4.807000000
H     1.077000000     3.896000000    -3.590000000
O     0.772000000     6.506000000     1.529000000
H     0.864000000     7.372000000     1.134000000
H    -0.075000000     6.188000000     1.218000000
O     2.916000000     5.053000000    -5.665000000
H     3.804000000     5.146000000    -6.010000000
H     2.425000000     4.643000000    -6.376000000
O    -1.397000000     5.162000000     0.787000000
H    -2.195000000     4.818000000     1.188000000
H    -0.950000000     4.389000000     0.442000000
O    -0.050000000     8.483000000    -2.652000000
H     0.083000000     8.443000000    -3.599000000
H     0.274000000     7.642000000    -2.330000000
O     2.171000000    -2.778000000    -3.165000000
H     1.638000000    -3.360000000    -2.624000000
H     1.535000000    -2.248000000    -3.645000000
O     2.296000000     4.316000000     2.794000000
H     2.186000000     5.068000000     2.213000000
H     2.573000000     3.605000000     2.217000000
O    -4.396000000     1.754000000    -2.727000000
H    -3.821000000     2.488000000    -2.511000000
H    -5.040000000     1.738000000    -2.018000000
O     1.251000000    -3.508000000     4.611000000
H     0.869000000    -2.657000000     4.825000000
H     1.745000000    -3.752000000     5.394000000
O    -3.404000000     7.100000000     0.341000000
H    -2.775000000     6.411000000     0.553000000
H    -3.469000000     7.080000000    -0.613000000
O    -2.776000000     3.611000000    -1.560000000
H    -2.848000000     3.466000000    -0.616000000
H    -1.845000000     3.496000000    -1.749000000
O     0.341000000    -1.389000000     5.860000000
H    -0.572000000    -1.161000000     6.033000000
H     0.799000000    -0.548000000     5.850000000
O     5.961000000     0.298000000    -3.857000000
H     5.178000000     0.219000000    -3.312000000
H     5.906000000    -0.440000000    -4.464000000
O    -4.250000000     0.495000000     5.394000000
H    -5.120000000     0.101000000     5.334000000
H    -4.050000000     0.772000000     4.500000000
O    -0.513000000    -4.981000000     2.963000000
H    -0.005000000    -4.374000000     3.501000000
H    -0.100000000    -5.832000000     3.107000000
O     3.313000000    -3.401000000     2.387000000
H     2.849000000    -3.262000000     3.212000000
H     3.533000000    -4.333000000     2.390000000
O    -1.387000000    -5.502000000     5.760000000
H    -0.532000000    -5.178000000     5.475000000
H    -1.988000000    -5.237000000     5.064000000
O     4.413000000    -1.881000000    -2.054000000
H     4.523000000    -2.591000000    -1.421000000
H     3.600000000    -2.093000000    -2.513000000
O    -2.126000000     5.113000000    -4.060000000
H    -1.174000000     5.015000000    -4.053000000
H    -2.441000000     4.440000000    -3.456000000
O     0.255000000     3.301000000     4.551000000
H     0.759000000     3.764000000     3.882000000
H    -0.623000000     3.679000000     4.493000000
O    -3.505000000     3.539000000     1.528000000
H    -4.352000000     3.940000000     1.332000000
H    -3.691000000     2.602000000     1.584000000
O     2.964000000     7.767000000    -1.582000000
H     2.199000000     7.260000000    -1.311000000
H     3.021000000     8.476000000    -0.942000000
O     3.263000000     2.575000000     1.145000000
H     3.890000000     3.147000000     0.702000000
H     3.445000000     1.703000000     0.795000000
O    -2.828000000    -5.549000000     0.370000000
H    -3.451000000    -6.258000000     0.530000000
H    -3.373000000    -4.767000000     0.278000000
O    -4.178000000    -2.177000000     1.705000000
H    -5.113000000    -2.324000000     1.847000000
H    -4.052000000    -2.318000000     0.767000000
O    -0.161000000     0.961000000    -3.963000000
H     0.308000000     1.678000000    -3.535000000
H     0.409000000     0.201000000    -3.851000000
O    -2.254000000    -7.403000000     2.809000000
H    -1.773000000    -6.626000000     3.095000000
H    -1.808000000    -7.679000000     2.008000000
O    -2.519000000     3.908000000     4.150000000
H    -2.891000000     3.924000000     3.269000000
H    -3.066000000     4.513000000     4.652000000
O     1.761000000     0.752000000     2.447000000
H     0.889000000     0.787000000     2.055000000
H     2.229000000     1.491000000     2.058000000
