144
-2788.21886
O    -0.784000000     4.153000000     2.704000000
H    -1.675000000     3.855000000     2.887000000
H    -0.266000000     3.825000000     3.440000000
O     1.014000000    -2.128000000    -4.540000000
H     1.520000000    -1.914000000    -5.324000000
H     0.287000000    -1.506000000    -4.546000000
O     4.571000000    -2.311000000     1.310000000
H     4.160000000    -1.827000000     0.594000000
H     5.455000000    -2.499000000     0.995000000
O    -0.102000000     1.581000000    -7.186000000
H    -0.768000000     1.677000000    -7.866000000
H    -0.566000000     1.761000000    -6.368000000
O     2.572000000    -6.295000000    -0.459000000
H     2.079000000    -5.748000000     0.153000000
H     2.229000000    -7.178000000    -0.323000000
O    -1.285000000     5.273000000     0.214000000
H    -1.527000000     4.469000000    -0.246000000
H    -1.237000000     5.017000000     1.135000000
O    -3.647000000    -1.689000000     1.755000000
H    -4.065000000    -2.549000000     1.720000000
H    -4.304000000    -1.089000000     1.401000000
O    -4.798000000     3.183000000    -3.143000000
H    -5.311000000     2.815000000    -3.862000000
H    -4.080000000     2.562000000    -3.019000000
O     4.226000000    -0.380000000    -1.012000000
H     3.816000000    -0.864000000    -1.729000000
H     3.521000000     0.156000000    -0.651000000
O    -5.102000000    -0.409000000    -5.829000000
H    -5.220000000     0.059000000    -5.002000000
H    -4.160000000    -0.566000000    -5.883000000
O    -6.111000000     6.022000000    -0.919000000
H    -5.430000000     5.398000000    -1.172000000
H    -6.858000000     5.475000000    -0.675000000
O     3.590000000    -3.509000000     3.491000000
H     2.979000000    -2.831000000     3.777000000
H     3.827000000    -3.258000000     2.598000000
O     2.385000000     1.517000000    -0.810000000
H     2.632000000     1.989000000    -0.015000000
H     1.446000000     1.357000000    -0.713000000
O    -5.990000000    -2.011000000    -1.689000000
H    -5.472000000    -2.566000000    -2.272000000
H    -5.444000000    -1.238000000    -1.546000000
O    -0.032000000     0.356000000     7.707000000
H    -0.051000000     0.742000000     6.831000000
H    -0.667000000     0.869000000     8.208000000
O    -3.063000000     5.019000000    -2.570000000
H    -3.773000000     4.393000000    -2.710000000
H    -2.488000000     4.590000000    -1.935000000
O    -2.658000000    -3.447000000    -3.039000000
H    -2.507000000    -3.526000000    -2.097000000
H    -1.846000000    -3.760000000    -3.438000000
O    -4.277000000     3.286000000     0.547000000
H    -3.339000000     3.231000000     0.361000000
H    -4.358000000     4.026000000     1.149000000
O     4.552000000    -6.280000000     2.836000000
H     4.049000000    -5.555000000     3.207000000
H     4.938000000    -5.919000000     2.038000000
O     3.587000000     0.567000000     3.214000000
H     4.522000000     0.431000000     3.063000000
H     3.265000000     0.946000000     2.396000000
O     2.637000000     3.143000000     1.587000000
H     2.231000000     3.898000000     1.161000000
H     3.514000000     3.444000000     1.824000000
O    -0.781000000    -7.387000000     0.272000000
H    -0.500000000    -6.474000000     0.211000000
H    -0.030000000    -7.890000000    -0.044000000
O     0.186000000     6.571000000     3.308000000
H     0.836000000     6.430000000     2.620000000
H    -0.477000000     5.898000000     3.154000000
O     3.683000000    -1.684000000    -3.709000000
H     2.890000000    -2.183000000    -3.907000000
H     3.941000000    -1.303000000    -4.548000000
O    -4.603000000     0.225000000    -1.843000000
H    -5.066000000     1.023000000    -1.589000000
H    -3.769000000     0.534000000    -2.198000000
O     0.352000000    -4.923000000     0.392000000
H    -0.118000000    -4.384000000    -0.243000000
H     0.097000000    -4.567000000     1.244000000
O    -3.274000000     0.567000000     3.248000000
H    -4.128000000     0.650000000     3.672000000
H    -3.396000000    -0.122000000     2.595000000
O    -1.706000000     1.748000000    -5.041000000
H    -1.964000000     1.588000000    -4.133000000
H    -2.302000000     2.433000000    -5.343000000
O    -0.585000000     1.441000000     4.713000000
H    -0.575000000     0.671000000     4.145000000
H    -1.455000000     1.819000000     4.589000000
O    -0.154000000     4.094000000    -4.671000000
H     0.665000000     3.734000000    -4.332000000
H    -0.780000000     3.372000000    -4.603000000
O    -6.190000000     1.841000000    -0.518000000
H    -5.550000000     2.415000000    -0.096000000
H    -6.349000000     1.148000000     0.123000000
O     1.455000000     4.913000000    -0.054000000
H     0.527000000     5.145000000    -0.027000000
H     1.701000000     5.013000000    -0.974000000
O    -1.989000000    -3.383000000    -0.375000000
H    -2.262000000    -2.528000000    -0.041000000
H    -2.474000000    -4.014000000     0.158000000
O     2.295000000    -0.614000000     5.452000000
H     1.764000000    -1.375000000     5.218000000
H     2.831000000    -0.449000000     4.677000000
O    -0.315000000     6.340000000    -3.218000000
H    -0.321000000     5.483000000    -3.645000000
H    -1.071000000     6.319000000    -2.630000000
O    -1.734000000    -2.152000000     3.975000000
H    -2.198000000    -1.832000000     3.201000000
H    -2.427000000    -2.357000000     4.602000000
O    -2.914000000     3.457000000     4.617000000
H    -3.423000000     2.750000000     5.016000000
H    -2.993000000     4.185000000     5.233000000
O     1.526000000     3.398000000     4.158000000
H     1.713000000     3.064000000     3.281000000
H     1.027000000     2.699000000     4.580000000
O     5.165000000    -3.295000000    -1.995000000
H     6.081000000    -3.301000000    -2.273000000
H     4.723000000    -2.741000000    -2.638000000
O     0.823000000    -2.610000000     4.412000000
H     0.028000000    -2.091000000     4.526000000
H     0.531000000    -3.398000000     3.953000000
O     6.246000000    -0.144000000     2.854000000
H     5.893000000    -0.808000000     2.261000000
H     7.191000000    -0.294000000     2.846000000
O     2.944000000    -4.950000000     6.081000000
H     3.010000000    -4.463000000     5.259000000
H     2.902000000    -4.273000000     6.757000000
O     5.173000000    -4.930000000     0.136000000
H     4.292000000    -5.284000000     0.013000000
H     5.264000000    -4.271000000    -0.552000000
O    -1.481000000     8.084000000    -0.579000000
H    -1.333000000     7.278000000    -0.085000000
H    -2.429000000     8.209000000    -0.554000000
O    -2.501000000    -0.987000000    -5.634000000
H    -1.819000000    -0.316000000    -5.615000000
H    -2.024000000    -1.811000000    -5.727000000
O    -0.058000000    -4.297000000    -3.110000000
H    -0.203000000    -3.667000000    -2.404000000
H     0.511000000    -3.837000000    -3.728000000
O     1.698000000     2.189000000    -3.753000000
H     2.225000000     1.567000000    -4.256000000
H     2.211000000     2.353000000    -2.962000000
O    -0.718000000    -4.386000000     2.903000000
H    -1.142000000    -4.992000000     3.511000000
H    -1.251000000    -3.592000000     2.945000000
