144
-2826.40361
O     1.017000000     6.044000000     3.793000000
H     0.137000000     5.773000000     4.053000000
H     0.976000000     6.107000000     2.838000000
O    -4.348000000     1.785000000    -4.912000000
H    -3.715000000     1.089000000    -4.735000000
H    -5.117000000     1.546000000    -4.395000000
O     4.521000000     0.656000000    -1.653000000
H     4.702000000     1.191000000    -2.426000000
H     4.789000000    -0.228000000    -1.906000000
O    -4.156000000     2.546000000    -1.905000000
H    -3.787000000     1.676000000    -1.749000000
H    -3.736000000     3.105000000    -1.251000000
O    -3.821000000    -0.138000000     3.620000000
H    -2.996000000    -0.533000000     3.902000000
H    -3.898000000    -0.380000000     2.697000000
O    -2.532000000     4.138000000     0.003000000
H    -2.714000000     3.453000000     0.647000000
H    -2.965000000     4.917000000     0.352000000
O    -3.453000000    -3.511000000    -2.554000000
H    -3.213000000    -2.585000000    -2.575000000
H    -2.795000000    -3.917000000    -1.990000000
O     1.046000000     1.574000000    -3.160000000
H     1.609000000     2.335000000    -3.016000000
H     0.173000000     1.871000000    -2.903000000
O     5.316000000    -2.595000000     0.146000000
H     5.285000000    -2.913000000     1.048000000
H     5.003000000    -3.332000000    -0.379000000
O     0.459000000    -0.394000000     4.867000000
H     1.144000000     0.261000000     5.001000000
H     0.767000000    -1.164000000     5.346000000
O     0.359000000    -0.084000000    -6.346000000
H     0.616000000    -0.465000000    -7.186000000
H     1.087000000    -0.287000000    -5.758000000
O     3.487000000     2.602000000     3.492000000
H     4.127000000     2.509000000     4.197000000
H     3.595000000     1.811000000     2.964000000
O    -0.188000000    -2.811000000    -4.427000000
H    -0.795000000    -2.169000000    -4.057000000
H    -0.136000000    -2.583000000    -5.355000000
O    -1.201000000    -1.130000000     2.849000000
H    -0.632000000    -1.045000000     2.083000000
H    -0.717000000    -0.701000000     3.555000000
O     3.492000000     6.465000000    -0.051000000
H     2.983000000     7.218000000     0.250000000
H     2.896000000     5.721000000     0.040000000
O     3.173000000    -4.298000000    -0.584000000
H     2.785000000    -3.709000000    -1.231000000
H     2.469000000    -4.459000000     0.045000000
O    -3.523000000     2.577000000     2.194000000
H    -3.053000000     2.306000000     2.983000000
H    -3.907000000     1.768000000     1.855000000
O     5.888000000     0.302000000     3.494000000
H     5.843000000     0.103000000     2.559000000
H     6.555000000     0.984000000     3.562000000
O    -4.025000000    -0.350000000     0.943000000
H    -3.629000000    -1.206000000     1.106000000
H    -4.005000000    -0.254000000    -0.009000000
O     3.011000000     3.317000000    -0.282000000
H     2.818000000     3.460000000    -1.208000000
H     3.045000000     2.365000000    -0.188000000
O    -0.763000000    -4.541000000     2.418000000
H    -1.047000000    -5.427000000     2.641000000
H     0.067000000    -4.665000000     1.956000000
O     3.325000000     1.064000000     7.086000000
H     4.039000000     1.121000000     7.720000000
H     2.577000000     1.464000000     7.530000000
O    -1.419000000    -4.598000000    -0.962000000
H    -0.684000000    -3.997000000    -1.083000000
H    -1.010000000    -5.453000000    -0.826000000
O    -1.702000000     2.478000000     4.268000000
H    -1.563000000     1.915000000     5.029000000
H    -1.428000000     3.347000000     4.560000000
O     2.188000000    -0.908000000    -4.295000000
H     1.996000000    -0.199000000    -3.681000000
H     1.967000000    -1.707000000    -3.816000000
O    -6.566000000     0.847000000    -3.447000000
H    -6.297000000     0.205000000    -2.791000000
H    -6.691000000     1.657000000    -2.953000000
O     2.996000000    -3.316000000     4.188000000
H     3.059000000    -2.370000000     4.321000000
H     3.524000000    -3.693000000     4.892000000
O    -2.906000000    -3.122000000     0.939000000
H    -2.341000000    -3.567000000     0.308000000
H    -2.301000000    -2.752000000     1.583000000
O    -2.045000000    -0.352000000    -5.155000000
H    -2.115000000    -0.737000000    -4.282000000
H    -1.104000000    -0.241000000    -5.293000000
O    -4.667000000    -5.213000000    -4.548000000
H    -4.189000000    -5.055000000    -3.734000000
H    -5.558000000    -4.913000000    -4.365000000
O    -6.682000000     3.582000000    -1.956000000
H    -5.862000000     3.092000000    -2.017000000
H    -6.891000000     3.584000000    -1.022000000
O    -2.120000000     5.669000000    -3.824000000
H    -2.979000000     5.823000000    -4.217000000
H    -2.303000000     5.144000000    -3.045000000
O    -6.223000000     1.121000000     1.095000000
H    -5.423000000     0.727000000     1.441000000
H    -6.605000000     0.440000000     0.541000000
O     2.048000000    -3.172000000    -3.002000000
H     2.815000000    -3.662000000    -3.298000000
H     1.345000000    -3.448000000    -3.589000000
O    -5.514000000    -4.451000000    -1.050000000
H    -6.414000000    -4.565000000    -1.356000000
H    -5.077000000    -3.983000000    -1.761000000
O    -7.701000000    -1.687000000    -0.190000000
H    -8.427000000    -1.190000000    -0.567000000
H    -6.981000000    -1.564000000    -0.808000000
O    -1.437000000    -3.520000000     4.874000000
H    -1.134000000    -3.296000000     3.994000000
H    -2.169000000    -4.120000000     4.730000000
O    -1.567000000    -5.453000000    -5.871000000
H    -1.057000000    -5.328000000    -6.671000000
H    -1.715000000    -4.567000000    -5.541000000
O     3.727000000    -0.666000000     4.938000000
H     4.535000000    -0.380000000     4.511000000
H     3.753000000    -0.254000000     5.801000000
O     1.974000000    -4.814000000     1.791000000
H     2.176000000    -4.586000000     2.698000000
H     2.285000000    -5.713000000     1.694000000
O     5.765000000     0.252000000     0.700000000
H     5.615000000    -0.668000000     0.482000000
H     5.474000000     0.732000000    -0.075000000
O    -5.676000000    -1.296000000    -2.258000000
H    -5.903000000    -1.881000000    -2.981000000
H    -4.767000000    -1.047000000    -2.428000000
O     6.360000000     3.749000000     1.721000000
H     6.613000000     3.348000000     2.553000000
H     5.434000000     3.530000000     1.622000000
O    -3.106000000    -0.873000000    -8.111000000
H    -3.906000000    -0.485000000    -8.465000000
H    -3.190000000    -0.773000000    -7.163000000
O     1.563000000     4.478000000     1.650000000
H     1.866000000     4.292000000     2.539000000
H     2.179000000     4.011000000     1.085000000
O     2.008000000     4.383000000    -2.805000000
H     1.763000000     4.791000000    -3.635000000
H     1.621000000     4.948000000    -2.136000000
O     5.457000000    -3.695000000     2.563000000
H     4.576000000    -3.480000000     2.870000000
H     5.930000000    -3.951000000     3.355000000
O     0.380000000     5.471000000    -0.933000000
H     0.739000000     5.758000000    -0.093000000
H    -0.357000000     4.907000000    -0.698000000
