144
-2766.78933
O    -2.092000000     2.118000000     3.289000000
H    -2.281000000     2.517000000     4.139000000
H    -2.951000000     2.008000000     2.880000000
O     3.891000000     2.320000000    -1.860000000
H     4.390000000     2.484000000    -1.059000000
H     3.465000000     3.155000000    -2.051000000
O    -1.109000000     2.647000000    -4.431000000
H    -1.824000000     2.077000000    -4.714000000
H    -0.758000000     2.220000000    -3.649000000
O     5.906000000     0.618000000    -1.809000000
H     5.080000000     0.925000000    -2.182000000
H     6.577000000     0.962000000    -2.399000000
O     5.322000000     3.280000000     0.511000000
H     5.974000000     2.754000000     0.973000000
H     5.079000000     3.963000000     1.136000000
O    -4.193000000     3.041000000    -0.839000000
H    -3.827000000     2.161000000    -0.928000000
H    -4.673000000     3.018000000    -0.011000000
O    -1.301000000     4.527000000     2.090000000
H    -1.552000000     3.657000000     2.400000000
H    -1.676000000     5.128000000     2.734000000
O    -3.697000000    -3.514000000    -1.120000000
H    -3.633000000    -2.639000000    -1.502000000
H    -2.815000000    -3.698000000    -0.795000000
O     0.547000000     2.159000000    -2.317000000
H     1.257000000     2.099000000    -2.956000000
H     0.715000000     1.443000000    -1.705000000
O     3.484000000    -4.285000000     0.303000000
H     2.895000000    -4.201000000     1.053000000
H     4.225000000    -4.792000000     0.636000000
O     2.899000000     0.687000000     5.962000000
H     3.031000000     0.905000000     6.884000000
H     2.088000000     1.136000000     5.723000000
O     1.169000000     0.821000000    -5.723000000
H     0.868000000     0.277000000    -4.996000000
H     0.365000000     1.161000000    -6.117000000
O     0.420000000     2.150000000     4.747000000
H     0.073000000     1.872000000     5.595000000
H    -0.317000000     2.056000000     4.144000000
O    -1.416000000    -1.712000000    -6.622000000
H    -1.243000000    -1.463000000    -5.714000000
H    -0.658000000    -2.238000000    -6.875000000
O    -0.717000000    -0.870000000    -4.074000000
H    -1.540000000    -0.851000000    -3.585000000
H    -0.388000000    -1.761000000    -3.954000000
O     1.538000000    -2.820000000     4.840000000
H     1.311000000    -2.353000000     5.643000000
H     2.424000000    -2.522000000     4.631000000
O    -5.248000000    -3.935000000    -5.632000000
H    -5.123000000    -4.601000000    -4.957000000
H    -5.043000000    -3.108000000    -5.194000000
O    -5.525000000     3.291000000    -4.861000000
H    -5.410000000     3.302000000    -5.812000000
H    -5.272000000     2.405000000    -4.600000000
O    -4.933000000     2.548000000     3.300000000
H    -4.692000000     2.764000000     4.201000000
H    -5.620000000     1.887000000     3.388000000
O     8.075000000     0.012000000     2.660000000
H     7.686000000    -0.344000000     1.861000000
H     7.542000000     0.780000000     2.863000000
O    -5.130000000    -0.103000000     0.874000000
H    -4.646000000    -0.573000000     1.552000000
H    -4.503000000    -0.003000000     0.158000000
O    -7.157000000     2.182000000    -1.264000000
H    -7.559000000     1.601000000    -0.617000000
H    -6.617000000     2.780000000    -0.746000000
O    -0.864000000    -4.275000000    -0.001000000
H     0.016000000    -4.596000000    -0.197000000
H    -0.992000000    -4.475000000     0.926000000
O     3.672000000    -1.366000000    -3.899000000
H     3.074000000    -1.138000000    -3.187000000
H     4.184000000    -2.099000000    -3.556000000
O    -7.735000000     0.771000000     1.094000000
H    -8.029000000     0.644000000     1.996000000
H    -6.782000000     0.691000000     1.140000000
O     4.318000000    -1.334000000     4.908000000
H     4.170000000    -1.876000000     5.683000000
H     4.061000000    -0.453000000     5.179000000
O    -3.430000000    -0.959000000     2.957000000
H    -2.520000000    -1.236000000     2.845000000
H    -3.369000000    -0.069000000     3.303000000
O    -5.393000000     1.012000000    -3.128000000
H    -4.731000000     0.695000000    -2.514000000
H    -6.051000000     1.434000000    -2.575000000
O    -6.627000000    -3.840000000    -3.066000000
H    -6.305000000    -2.973000000    -2.819000000
H    -7.567000000    -3.806000000    -2.889000000
O    -4.307000000     5.778000000     0.425000000
H    -5.178000000     5.479000000     0.686000000
H    -3.764000000     4.990000000     0.460000000
O    -4.646000000     4.702000000    -2.784000000
H    -4.387000000     4.070000000    -2.114000000
H    -5.343000000     4.262000000    -3.272000000
O    -1.806000000     6.567000000    -0.128000000
H    -2.737000000     6.610000000    -0.348000000
H    -1.726000000     5.790000000     0.424000000
O     1.515000000    -5.133000000    -1.218000000
H     1.665000000    -5.857000000    -1.826000000
H     2.386000000    -4.913000000    -0.888000000
O    -4.924000000    -5.125000000     0.752000000
H    -4.773000000    -4.660000000     1.575000000
H    -4.662000000    -4.502000000     0.074000000
O    -6.191000000     3.582000000     1.236000000
H    -7.089000000     3.817000000     1.473000000
H    -5.828000000     3.193000000     2.031000000
O    -1.047000000    -2.525000000     3.531000000
H    -0.165000000    -2.664000000     3.877000000
H    -1.295000000    -3.372000000     3.161000000
O     6.500000000     2.016000000     3.115000000
H     5.986000000     2.821000000     3.178000000
H     6.420000000     1.613000000     3.980000000
O    -0.131000000    -3.757000000    -2.984000000
H     0.378000000    -4.006000000    -3.755000000
H     0.424000000    -4.001000000    -2.243000000
O     5.611000000    -2.605000000     2.693000000
H     5.172000000    -2.188000000     3.435000000
H     5.508000000    -3.543000000     2.851000000
O     6.482000000    -0.721000000     0.488000000
H     5.754000000    -1.280000000     0.761000000
H     6.097000000    -0.123000000    -0.153000000
O    -4.704000000    -1.847000000    -4.126000000
H    -5.443000000    -1.261000000    -3.962000000
H    -4.119000000    -1.708000000    -3.381000000
O    -2.183000000    -5.490000000    -3.042000000
H    -2.805000000    -5.099000000    -2.429000000
H    -1.566000000    -4.785000000    -3.240000000
O     5.021000000     4.383000000     2.821000000
H     5.379000000     5.057000000     3.398000000
H     4.256000000     4.048000000     3.289000000
O    -4.870000000     0.624000000    -5.963000000
H    -3.955000000     0.594000000    -6.240000000
H    -4.941000000    -0.055000000    -5.292000000
O     2.783000000     3.564000000     4.198000000
H     3.240000000     3.355000000     5.013000000
H     2.072000000     2.925000000     4.153000000
O     1.801000000     5.714000000     3.033000000
H     1.801000000     5.299000000     2.170000000
H     2.042000000     5.012000000     3.637000000
O     4.487000000    -3.514000000    -2.235000000
H     4.185000000    -3.580000000    -1.329000000
H     4.462000000    -4.413000000    -2.562000000
O     1.233000000     4.482000000     0.392000000
H     1.041000000     3.579000000     0.138000000
H     0.434000000     4.783000000     0.826000000
