144
-2825.37226
O    -0.006000000     4.071000000     4.549000000
H    -0.340000000     4.402000000     5.383000000
H    -0.485000000     3.255000000     4.406000000
O     4.085000000     2.285000000    -1.066000000
H     4.954000000     2.449000000    -0.700000000
H     3.521000000     2.935000000    -0.648000000
O     1.630000000    -2.862000000    -6.213000000
H     1.528000000    -2.464000000    -7.078000000
H     1.548000000    -2.131000000    -5.601000000
O    -5.793000000     0.364000000    -3.664000000
H    -4.846000000     0.411000000    -3.795000000
H    -5.969000000     0.986000000    -2.958000000
O     5.006000000     0.062000000    -2.692000000
H     4.585000000     0.736000000    -2.159000000
H     5.045000000     0.441000000    -3.571000000
O     6.389000000     3.185000000     0.339000000
H     7.228000000     3.405000000    -0.066000000
H     6.436000000     3.572000000     1.213000000
O    -2.899000000     2.750000000    -2.099000000
H    -3.195000000     1.963000000    -1.642000000
H    -2.613000000     3.339000000    -1.401000000
O    -2.406000000     3.676000000     0.771000000
H    -2.821000000     3.145000000     1.450000000
H    -2.385000000     4.560000000     1.137000000
O    -3.332000000    -3.619000000    -2.797000000
H    -2.802000000    -2.833000000    -2.930000000
H    -2.723000000    -4.259000000    -2.428000000
O     2.124000000     1.739000000    -3.086000000
H     1.286000000     2.197000000    -3.143000000
H     2.461000000     1.963000000    -2.218000000
O     3.493000000    -3.387000000     0.074000000
H     3.793000000    -3.856000000     0.852000000
H     2.600000000    -3.116000000     0.287000000
O     1.111000000    -1.075000000     4.861000000
H     1.819000000    -0.453000000     5.031000000
H     0.612000000    -1.099000000     5.678000000
O    -0.252000000     0.573000000    -6.243000000
H     0.170000000     0.423000000    -5.397000000
H    -1.037000000     0.027000000    -6.220000000
O     3.793000000     2.582000000     3.829000000
H     3.075000000     2.467000000     4.452000000
H     4.459000000     1.956000000     4.112000000
O    -2.043000000    -1.307000000    -7.127000000
H    -1.949000000    -1.926000000    -6.403000000
H    -2.986000000    -1.265000000    -7.285000000
O    -1.108000000    -2.663000000    -4.577000000
H    -1.349000000    -2.031000000    -3.900000000
H    -0.228000000    -2.950000000    -4.335000000
O    -0.673000000    -1.766000000     2.985000000
H    -0.541000000    -0.919000000     2.559000000
H     0.121000000    -1.900000000     3.503000000
O     4.290000000    -1.987000000     3.013000000
H     4.556000000    -1.076000000     3.134000000
H     3.794000000    -2.199000000     3.804000000
O    -3.709000000     2.264000000     2.828000000
H    -3.089000000     2.100000000     3.538000000
H    -4.478000000     1.740000000     3.056000000
O     5.946000000     0.457000000     1.974000000
H     5.801000000    -0.055000000     1.178000000
H     5.504000000     1.290000000     1.806000000
O    -4.816000000    -0.142000000     0.903000000
H    -4.389000000    -0.937000000     1.222000000
H    -4.475000000    -0.026000000     0.016000000
O    -6.856000000     2.788000000    -0.514000000
H    -7.152000000     1.938000000    -0.190000000
H    -6.623000000     3.277000000     0.275000000
O    -1.957000000    -5.748000000    -1.400000000
H    -1.219000000    -5.432000000    -1.922000000
H    -1.570000000    -6.380000000    -0.795000000
O    -1.452000000     1.802000000     4.781000000
H    -1.335000000     0.858000000     4.888000000
H    -1.585000000     2.129000000     5.671000000
O     2.040000000    -0.776000000    -4.183000000
H     2.032000000     0.070000000    -3.735000000
H     2.507000000    -1.359000000    -3.583000000
O    -7.936000000    -1.006000000    -2.419000000
H    -7.293000000    -1.513000000    -1.923000000
H    -7.410000000    -0.430000000    -2.974000000
O     2.672000000    -3.369000000     4.722000000
H     1.900000000    -2.831000000     4.545000000
H     2.457000000    -3.836000000     5.530000000
O    -3.013000000    -2.114000000     1.600000000
H    -2.844000000    -3.035000000     1.405000000
H    -2.163000000    -1.767000000     1.873000000
O    -3.220000000     0.985000000    -4.629000000
H    -3.064000000     0.132000000    -4.224000000
H    -3.152000000     1.610000000    -3.906000000
O    -4.543000000    -2.438000000    -5.348000000
H    -4.213000000    -2.619000000    -4.468000000
H    -5.464000000    -2.215000000    -5.218000000
O    -5.601000000     3.344000000    -2.813000000
H    -4.657000000     3.281000000    -2.669000000
H    -5.987000000     3.157000000    -1.957000000
O    -0.291000000     3.284000000    -3.266000000
H    -1.217000000     3.260000000    -3.024000000
H     0.156000000     3.586000000    -2.475000000
O    -7.496000000     0.548000000     0.650000000
H    -7.974000000    -0.263000000     0.821000000
H    -6.601000000     0.363000000     0.931000000
O     0.095000000    -4.809000000    -2.940000000
H     0.377000000    -5.271000000    -3.729000000
H     0.878000000    -4.770000000    -2.391000000
O    -6.203000000     3.633000000     1.894000000
H    -6.849000000     3.005000000     2.218000000
H    -5.364000000     3.184000000     1.987000000
O    -1.602000000    -4.378000000     3.372000000
H    -1.190000000    -3.543000000     3.149000000
H    -2.053000000    -4.643000000     2.571000000
O     6.083000000     0.332000000     4.919000000
H     6.173000000     0.448000000     3.973000000
H     6.973000000     0.155000000     5.224000000
O    -2.174000000    -5.340000000    -5.496000000
H    -1.977000000    -5.299000000    -6.432000000
H    -1.897000000    -4.489000000    -5.156000000
O     3.410000000     0.519000000     5.979000000
H     4.350000000     0.371000000     5.875000000
H     3.320000000     0.879000000     6.861000000
O     3.443000000    -4.884000000     2.341000000
H     3.090000000    -4.330000000     3.037000000
H     3.202000000    -5.774000000     2.599000000
O     5.523000000    -1.248000000    -0.139000000
H     4.820000000    -1.879000000     0.010000000
H     5.337000000    -0.882000000    -1.004000000
O    -5.534000000    -2.208000000    -1.694000000
H    -4.965000000    -2.870000000    -2.087000000
H    -4.947000000    -1.482000000    -1.485000000
O     5.765000000     4.340000000     3.383000000
H     4.949000000     3.845000000     3.452000000
H     6.332000000     3.964000000     4.057000000
O    -3.219000000     1.694000000    -7.354000000
H    -2.492000000     1.224000000    -7.763000000
H    -3.111000000     1.534000000    -6.417000000
O     1.332000000     5.371000000     2.633000000
H     2.173000000     4.958000000     2.828000000
H     0.688000000     4.827000000     3.087000000
O     3.446000000    -2.621000000    -2.777000000
H     3.466000000    -2.621000000    -1.820000000
H     3.791000000    -3.479000000    -3.024000000
O     6.173000000    -3.945000000     2.313000000
H     5.509000000    -4.633000000     2.272000000
H     5.703000000    -3.177000000     2.636000000
O     0.593000000     3.159000000    -0.779000000
H     0.511000000     2.260000000    -0.461000000
H     0.062000000     3.676000000    -0.175000000
