144
-2844.08755
O     4.576000000    -0.809000000     1.471000000
H     5.394000000    -0.320000000     1.377000000
H     3.893000000    -0.138000000     1.463000000
O    -0.101000000    -2.658000000    -4.815000000
H     0.195000000    -2.709000000    -5.723000000
H    -0.359000000    -1.743000000    -4.699000000
O     3.478000000    -0.276000000    -3.765000000
H     4.198000000    -0.854000000    -4.018000000
H     2.772000000    -0.870000000    -3.509000000
O     2.028000000     4.575000000    -1.894000000
H     2.916000000     4.253000000    -1.736000000
H     1.713000000     4.057000000    -2.634000000
O    -0.829000000     7.656000000     0.056000000
H    -0.086000000     7.169000000     0.413000000
H    -1.161000000     7.101000000    -0.650000000
O    -2.306000000    -1.302000000    -2.616000000
H    -1.803000000    -1.832000000    -1.998000000
H    -2.673000000    -1.935000000    -3.232000000
O     1.708000000     7.303000000    -2.664000000
H     1.577000000     6.355000000    -2.650000000
H     1.390000000     7.602000000    -1.812000000
O     5.172000000     3.221000000    -1.497000000
H     5.405000000     3.853000000    -2.177000000
H     5.493000000     2.383000000    -1.829000000
O     1.534000000    -0.165000000    -6.897000000
H     2.129000000    -0.045000000    -6.158000000
H     1.629000000    -1.088000000    -7.134000000
O    -1.533000000     5.910000000    -2.214000000
H    -1.407000000     6.132000000    -3.136000000
H    -1.401000000     4.963000000    -2.175000000
O    -2.037000000     4.767000000     1.242000000
H    -1.425000000     4.088000000     0.959000000
H    -1.492000000     5.545000000     1.363000000
O    -2.354000000    -1.449000000     4.757000000
H    -2.540000000    -2.388000000     4.736000000
H    -3.075000000    -1.051000000     4.270000000
O    -1.619000000    -1.215000000     7.248000000
H    -2.441000000    -1.259000000     7.735000000
H    -1.858000000    -1.451000000     6.352000000
O     0.228000000    -3.660000000    -1.355000000
H     0.891000000    -3.130000000    -0.913000000
H    -0.590000000    -3.440000000    -0.909000000
O    -0.393000000    -3.994000000     4.935000000
H    -0.056000000    -3.823000000     5.814000000
H    -1.343000000    -3.917000000     5.024000000
O     4.189000000    -1.240000000     6.472000000
H     3.637000000    -1.361000000     5.700000000
H     4.007000000    -0.345000000     6.759000000
O     3.153000000    -3.646000000    -1.232000000
H     3.990000000    -3.676000000    -0.769000000
H     2.862000000    -4.557000000    -1.261000000
O    -6.067000000    -1.681000000    -0.537000000
H    -6.563000000    -1.909000000    -1.323000000
H    -5.640000000    -0.853000000    -0.754000000
O    -0.982000000    -5.829000000    -2.397000000
H    -0.549000000    -5.236000000    -1.782000000
H    -1.449000000    -5.251000000    -3.000000000
O    -0.628000000     4.198000000    -4.622000000
H    -0.646000000     3.449000000    -5.218000000
H    -0.238000000     3.855000000    -3.818000000
O     3.010000000     5.708000000    -4.786000000
H     3.671000000     5.032000000    -4.639000000
H     3.016000000     6.227000000    -3.982000000
O    -4.467000000     0.140000000    -1.560000000
H    -4.236000000     1.018000000    -1.258000000
H    -3.637000000    -0.242000000    -1.844000000
O     1.659000000     4.187000000     3.046000000
H     1.156000000     3.483000000     2.636000000
H     2.573000000     3.928000000     2.930000000
O    -3.922000000     6.440000000    -1.100000000
H    -3.953000000     5.659000000    -0.548000000
H    -3.189000000     6.284000000    -1.694000000
O     2.201000000    -2.436000000    -3.241000000
H     2.733000000    -2.872000000    -2.576000000
H     1.320000000    -2.786000000    -3.112000000
O     2.898000000     1.457000000     3.625000000
H     1.975000000     1.222000000     3.715000000
H     3.043000000     1.502000000     2.680000000
O     4.327000000    -3.531000000     1.345000000
H     4.349000000    -2.574000000     1.369000000
H     4.930000000    -3.801000000     2.038000000
O    -3.985000000     2.938000000    -1.650000000
H    -4.019000000     2.817000000    -2.599000000
H    -3.050000000     2.949000000    -1.443000000
O     1.810000000    -2.289000000     5.084000000
H     1.765000000    -2.794000000     5.896000000
H     1.323000000    -2.814000000     4.448000000
O     5.557000000     0.592000000    -2.162000000
H     6.064000000    -0.111000000    -1.756000000
H     4.853000000     0.141000000    -2.628000000
O     0.374000000    -0.120000000     4.342000000
H     0.974000000    -0.629000000     4.886000000
H    -0.410000000    -0.665000000     4.276000000
O    -0.525000000     2.013000000    -6.852000000
H     0.043000000     1.251000000    -6.963000000
H    -0.392000000     2.529000000    -7.648000000
O    -4.561000000    -1.082000000     3.266000000
H    -4.413000000    -1.518000000     2.427000000
H    -4.363000000    -0.161000000     3.096000000
O    -3.198000000    -4.087000000     4.742000000
H    -3.438000000    -4.586000000     5.523000000
H    -3.183000000    -4.736000000     4.039000000
O     0.056000000    -5.661000000     2.710000000
H    -0.832000000    -6.017000000     2.739000000
H     0.003000000    -4.843000000     3.204000000
O     1.937000000     2.192000000    -4.978000000
H     2.380000000     1.645000000    -4.329000000
H     1.119000000     2.452000000    -4.554000000
O    -0.145000000     2.368000000     2.240000000
H    -0.350000000     1.869000000     3.031000000
H    -0.498000000     1.839000000     1.525000000
O    -4.640000000     4.268000000     0.749000000
H    -4.706000000     3.754000000    -0.056000000
H    -3.706000000     4.271000000     0.956000000
O     0.521000000     6.224000000    -5.876000000
H     0.033000000     5.443000000    -5.614000000
H     1.410000000     6.070000000    -5.557000000
O     0.823000000     5.622000000     0.685000000
H     1.271000000     5.198000000     1.417000000
H     1.234000000     5.249000000    -0.095000000
O     2.366000000    -5.386000000     0.855000000
H     2.868000000    -4.584000000     0.998000000
H     1.546000000    -5.243000000     1.328000000
O    -2.030000000    -3.785000000    -0.126000000
H    -2.538000000    -4.533000000    -0.440000000
H    -2.684000000    -3.111000000     0.057000000
O    -4.276000000    -2.894000000     1.014000000
H    -4.799000000    -3.496000000     1.544000000
H    -4.872000000    -2.601000000     0.326000000
O    -2.745000000     4.384000000     4.309000000
H    -2.221000000     4.774000000     5.009000000
H    -2.176000000     4.414000000     3.539000000
O    -1.205000000    -0.275000000    -4.766000000
H    -1.671000000    -0.223000000    -3.932000000
H    -0.827000000     0.597000000    -4.883000000
O    -2.826000000    -6.200000000     2.871000000
H    -2.783000000    -7.107000000     2.569000000
H    -3.291000000    -5.737000000     2.173000000
O    -3.308000000     1.368000000     3.717000000
H    -2.450000000     1.168000000     4.090000000
H    -3.581000000     2.171000000     4.161000000
O     2.998000000     1.368000000     0.683000000
H     2.263000000     0.886000000     0.302000000
H     3.474000000     1.714000000    -0.072000000
