144
-2816.48721
O    -3.319000000     2.233000000    -3.042000000
H    -4.147000000     2.698000000    -3.158000000
H    -3.572000000     1.315000000    -2.941000000
O     3.943000000     5.064000000     2.614000000
H     3.962000000     4.378000000     3.281000000
H     3.103000000     4.944000000     2.171000000
O     0.437000000    -3.483000000    -4.030000000
H     1.325000000    -3.132000000    -3.957000000
H     0.557000000    -4.433000000    -4.049000000
O     4.935000000    -0.960000000     2.608000000
H     5.299000000    -0.417000000     1.909000000
H     5.227000000    -1.847000000     2.399000000
O    -4.430000000    -2.485000000     0.860000000
H    -4.233000000    -2.302000000    -0.059000000
H    -4.888000000    -3.325000000     0.844000000
O    -2.302000000    -3.869000000    -4.606000000
H    -2.696000000    -3.003000000    -4.502000000
H    -1.416000000    -3.773000000    -4.257000000
O    -1.759000000     5.100000000     0.653000000
H    -2.488000000     4.520000000     0.431000000
H    -1.075000000     4.876000000     0.021000000
O     0.207000000     3.168000000    -0.367000000
H     0.180000000     2.331000000     0.098000000
H     0.220000000     2.927000000    -1.293000000
O    -6.000000000     0.528000000    -3.728000000
H    -6.152000000     0.229000000    -4.625000000
H    -5.954000000    -0.277000000    -3.213000000
O     3.053000000     0.102000000     4.442000000
H     3.525000000    -0.138000000     3.645000000
H     2.377000000    -0.570000000     4.530000000
O    -6.305000000     1.085000000    -0.839000000
H    -5.390000000     0.882000000    -0.647000000
H    -6.462000000     0.696000000    -1.699000000
O     5.736000000     0.215000000     0.049000000
H     6.515000000     0.196000000    -0.506000000
H     5.554000000     1.146000000     0.177000000
O    -5.692000000    -0.505000000    -6.239000000
H    -5.306000000    -0.067000000    -6.998000000
H    -4.964000000    -0.985000000    -5.844000000
O     2.976000000    -2.240000000    -4.180000000
H     2.857000000    -1.357000000    -4.531000000
H     3.352000000    -2.102000000    -3.311000000
O     7.765000000    -0.076000000     1.960000000
H     7.371000000    -0.188000000     1.095000000
H     7.619000000     0.846000000     2.172000000
O     3.435000000     2.593000000    -2.428000000
H     3.651000000     2.352000000    -1.527000000
H     4.053000000     2.095000000    -2.964000000
O     4.181000000    -1.395000000    -2.037000000
H     4.399000000    -0.778000000    -1.339000000
H     4.993000000    -1.491000000    -2.535000000
O    -2.060000000     4.826000000    -2.830000000
H    -2.068000000     3.886000000    -2.647000000
H    -2.466000000     4.905000000    -3.694000000
O     1.573000000     5.064000000     1.253000000
H     1.090000000     4.376000000     0.795000000
H     1.661000000     5.765000000     0.607000000
O     4.675000000     2.750000000     0.529000000
H     4.993000000     3.026000000     1.389000000
H     4.013000000     3.402000000     0.298000000
O    -6.960000000    -0.985000000     1.542000000
H    -6.698000000    -0.200000000     1.062000000
H    -6.152000000    -1.489000000     1.637000000
O     5.005000000     2.515000000     3.684000000
H     5.480000000     3.024000000     4.342000000
H     4.281000000     2.117000000     4.167000000
O    -5.645000000     4.136000000     1.664000000
H    -5.031000000     3.556000000     1.215000000
H    -5.774000000     4.865000000     1.057000000
O    -4.223000000     0.647000000     2.371000000
H    -4.070000000     0.617000000     1.426000000
H    -3.791000000    -0.138000000     2.708000000
O    -5.665000000    -1.816000000    -2.372000000
H    -5.518000000    -2.751000000    -2.226000000
H    -4.832000000    -1.404000000    -2.142000000
O    -0.303000000    -1.812000000    -6.141000000
H     0.003000000    -2.447000000    -5.494000000
H     0.228000000    -1.032000000    -5.981000000
O     0.471000000    -4.353000000     0.720000000
H     1.175000000    -3.798000000     0.384000000
H     0.923000000    -5.099000000     1.115000000
O     7.335000000     2.541000000     2.298000000
H     7.577000000     3.435000000     2.058000000
H     6.619000000     2.647000000     2.925000000
O    -5.226000000     2.280000000     4.417000000
H    -5.397000000     3.157000000     4.073000000
H    -4.779000000     1.825000000     3.703000000
O    -3.581000000     3.156000000    -0.052000000
H    -3.713000000     3.148000000    -1.000000000
H    -3.508000000     2.232000000     0.188000000
O    -3.258000000    -1.226000000    -4.748000000
H    -3.148000000    -1.017000000    -3.820000000
H    -2.431000000    -0.965000000    -5.152000000
O    -7.526000000     3.604000000    -0.629000000
H    -7.217000000     2.705000000    -0.512000000
H    -8.238000000     3.696000000     0.005000000
O    -1.208000000     0.968000000    -4.951000000
H    -1.665000000     1.181000000    -4.137000000
H    -1.027000000     1.818000000    -5.353000000
O     3.875000000    -3.858000000     4.152000000
H     3.707000000    -2.918000000     4.085000000
H     4.321000000    -4.080000000     3.334000000
O     1.994000000     2.567000000     4.326000000
H     2.339000000     1.700000000     4.538000000
H     1.119000000     2.578000000     4.713000000
O    -5.432000000     4.111000000    -2.489000000
H    -5.894000000     3.969000000    -3.315000000
H    -6.054000000     3.834000000    -1.816000000
O    -0.748000000    -0.279000000     4.456000000
H    -1.568000000    -0.766000000     4.540000000
H    -0.066000000    -0.950000000     4.499000000
O     6.112000000     1.400000000    -2.773000000
H     6.801000000     0.755000000    -2.610000000
H     6.581000000     2.186000000    -3.054000000
O    -1.632000000    -3.974000000    -0.849000000
H    -0.856000000    -4.179000000    -0.327000000
H    -1.665000000    -3.017000000    -0.862000000
O     3.381000000    -3.525000000    -0.451000000
H     3.349000000    -2.711000000    -0.953000000
H     3.385000000    -4.215000000    -1.115000000
O    -3.339000000    -2.077000000     3.344000000
H    -3.716000000    -2.161000000     2.469000000
H    -2.521000000    -2.573000000     3.301000000
O     6.603000000    -0.074000000     4.749000000
H     7.338000000    -0.222000000     4.154000000
H     5.825000000    -0.245000000     4.218000000
O    -2.086000000     2.178000000     4.387000000
H    -1.587000000     1.489000000     3.949000000
H    -1.965000000     2.950000000     3.835000000
O     4.007000000     5.252000000    -2.422000000
H     4.018000000     4.294000000    -2.417000000
H     4.488000000     5.501000000    -1.633000000
O     0.573000000     2.648000000    -3.088000000
H     0.463000000     1.796000000    -3.511000000
H     1.519000000     2.745000000    -2.985000000
O     1.672000000     0.764000000    -5.405000000
H     1.603000000     1.700000000    -5.596000000
H     2.596000000     0.631000000    -5.194000000
O     5.308000000    -3.526000000     1.833000000
H     4.757000000    -3.485000000     1.052000000
H     6.190000000    -3.681000000     1.497000000
O    -0.710000000     4.856000000     3.131000000
H     0.127000000     5.241000000     2.873000000
H    -1.200000000     4.777000000     2.312000000
