144
-2818.16912
O     4.940000000     0.179000000     2.279000000
H     5.357000000    -0.635000000     1.998000000
H     5.636000000     0.665000000     2.722000000
O    -5.379000000     0.555000000    -3.058000000
H    -5.544000000    -0.319000000    -2.704000000
H    -6.250000000     0.932000000    -3.181000000
O    -5.027000000     2.178000000    -0.571000000
H    -5.042000000     2.001000000    -1.511000000
H    -4.251000000     2.724000000    -0.443000000
O     1.735000000     1.161000000    -3.589000000
H     2.144000000     0.336000000    -3.327000000
H     1.531000000     1.043000000    -4.516000000
O     2.751000000    -1.854000000     2.291000000
H     2.084000000    -1.807000000     2.976000000
H     3.413000000    -1.216000000     2.557000000
O    -4.351000000    -1.987000000     0.031000000
H    -5.236000000    -1.648000000     0.171000000
H    -3.926000000    -1.905000000     0.884000000
O     4.214000000     4.721000000     5.369000000
H     4.262000000     4.039000000     6.039000000
H     3.843000000     4.281000000     4.604000000
O     3.451000000     2.243000000     7.064000000
H     3.368000000     2.775000000     7.855000000
H     2.690000000     2.480000000     6.534000000
O     1.713000000    -1.000000000     4.663000000
H     1.550000000    -0.056000000     4.663000000
H     2.030000000    -1.188000000     5.546000000
O    -1.578000000    -5.215000000    -1.745000000
H    -0.945000000    -5.094000000    -1.037000000
H    -2.430000000    -5.070000000    -1.332000000
O    -0.455000000    -0.560000000     7.632000000
H    -0.608000000    -0.492000000     6.689000000
H    -0.838000000     0.239000000     7.994000000
O    -3.533000000    -0.714000000     4.872000000
H    -3.766000000    -0.458000000     5.764000000
H    -4.359000000    -0.683000000     4.389000000
O    -7.514000000     1.774000000     0.790000000
H    -7.844000000     2.598000000     0.433000000
H    -6.614000000     1.717000000     0.469000000
O     3.422000000    -1.075000000    -3.712000000
H     3.903000000    -1.515000000    -3.011000000
H     2.813000000    -1.738000000    -4.038000000
O     4.495000000     0.596000000    -5.681000000
H     3.816000000     0.389000000    -5.039000000
H     5.053000000    -0.182000000    -5.700000000
O    -2.513000000     0.307000000    -3.055000000
H    -3.423000000     0.503000000    -2.833000000
H    -2.552000000    -0.543000000    -3.494000000
O     2.110000000    -3.077000000    -5.181000000
H     2.461000000    -3.957000000    -5.319000000
H     2.191000000    -2.651000000    -6.035000000
O    -4.160000000    -3.002000000     2.953000000
H    -4.608000000    -2.328000000     3.465000000
H    -3.535000000    -3.391000000     3.566000000
O    -3.039000000    -2.379000000    -3.476000000
H    -2.977000000    -2.803000000    -2.620000000
H    -2.293000000    -2.724000000    -3.968000000
O     2.774000000    -3.014000000    -0.214000000
H     2.639000000    -2.504000000     0.585000000
H     3.725000000    -3.095000000    -0.289000000
O     3.678000000     6.178000000     2.027000000
H     4.306000000     6.346000000     2.729000000
H     3.853000000     5.275000000     1.761000000
O    -0.291000000    -2.513000000     2.421000000
H    -0.300000000    -1.771000000     1.816000000
H     0.111000000    -2.167000000     3.218000000
O    -1.044000000    -0.271000000     4.980000000
H    -1.923000000    -0.614000000     4.821000000
H    -1.042000000     0.590000000     4.562000000
O    -3.665000000     4.855000000    -1.568000000
H    -3.070000000     5.557000000    -1.832000000
H    -3.090000000     4.121000000    -1.353000000
O    -6.331000000     2.527000000     3.901000000
H    -6.658000000     3.302000000     3.443000000
H    -5.536000000     2.286000000     3.425000000
O     0.836000000    -0.070000000    -5.797000000
H     1.288000000    -0.801000000    -6.217000000
H     0.077000000     0.095000000    -6.356000000
O     0.516000000     5.001000000     7.531000000
H     0.846000000     5.877000000     7.735000000
H     0.836000000     4.825000000     6.646000000
O     0.025000000    -6.769000000     0.747000000
H     0.319000000    -5.861000000     0.822000000
H     0.703000000    -7.198000000     0.224000000
O    -2.146000000     2.907000000    -1.249000000
H    -1.434000000     2.520000000    -0.739000000
H    -1.925000000     2.708000000    -2.158000000
O     3.521000000     2.640000000    -1.714000000
H     2.878000000     1.933000000    -1.649000000
H     3.109000000     3.286000000    -2.287000000
O     2.624000000    -5.932000000    -1.617000000
H     2.482000000    -6.005000000    -2.561000000
H     2.142000000    -5.145000000    -1.364000000
O    -1.761000000     2.030000000     8.278000000
H    -1.182000000     2.397000000     8.945000000
H    -1.737000000     2.666000000     7.563000000
O    -3.485000000     4.776000000     4.646000000
H    -4.320000000     4.396000000     4.918000000
H    -3.426000000     4.583000000     3.711000000
O     1.226000000     2.743000000     5.722000000
H     0.392000000     2.612000000     6.173000000
H     1.008000000     2.685000000     4.792000000
O    -0.551000000     4.606000000     3.084000000
H    -0.480000000     3.660000000     3.212000000
H     0.220000000     4.965000000     3.522000000
O    -3.567000000     2.474000000     2.696000000
H    -2.638000000     2.254000000     2.628000000
H    -3.673000000     3.240000000     2.131000000
O    -0.818000000     2.554000000    -3.534000000
H     0.015000000     2.149000000    -3.774000000
H    -1.447000000     1.833000000    -3.544000000
O    -1.697000000     2.929000000     5.701000000
H    -1.551000000     2.393000000     4.921000000
H    -2.126000000     3.719000000     5.373000000
O    -5.189000000    -0.384000000     2.495000000
H    -5.801000000    -0.178000000     1.789000000
H    -4.553000000     0.331000000     2.478000000
O     0.162000000    -4.090000000     0.311000000
H     0.834000000    -3.715000000    -0.258000000
H     0.084000000    -3.465000000     1.033000000
O    -1.238000000     5.560000000     0.469000000
H    -0.709000000     5.176000000    -0.230000000
H    -1.093000000     4.987000000     1.222000000
O     3.535000000     2.340000000     3.644000000
H     3.822000000     1.450000000     3.442000000
H     2.607000000     2.351000000     3.410000000
O     4.987000000    -4.277000000    -1.486000000
H     5.059000000    -4.131000000    -0.542000000
H     4.593000000    -5.146000000    -1.564000000
O    -4.279000000    -4.611000000    -0.777000000
H    -4.306000000    -5.192000000    -0.016000000
H    -4.072000000    -3.750000000    -0.413000000
O    -1.256000000    -3.289000000    -5.272000000
H    -0.306000000    -3.193000000    -5.199000000
H    -1.449000000    -3.075000000    -6.185000000
O     3.964000000     3.648000000     0.982000000
H     3.833000000     3.219000000     0.137000000
H     3.870000000     2.945000000     1.625000000
O    -0.745000000    -5.928000000    -4.176000000
H    -0.923000000    -5.812000000    -3.243000000
H    -1.192000000    -5.194000000    -4.598000000
O     5.860000000     1.347000000    -2.805000000
H     5.687000000     0.648000000    -3.436000000
H     5.008000000     1.529000000    -2.409000000
