144
-2829.36541
O    -1.341000000    -2.886000000     4.514000000
H    -0.674000000    -2.467000000     5.057000000
H    -2.132000000    -2.368000000     4.663000000
O    -1.573000000    -1.083000000    -4.851000000
H    -1.049000000    -0.493000000    -5.393000000
H    -2.422000000    -0.647000000    -4.774000000
O     0.664000000     2.764000000     0.279000000
H     0.619000000     1.809000000     0.314000000
H     1.577000000     2.968000000     0.485000000
O     1.729000000     4.718000000    -4.180000000
H     1.992000000     4.070000000    -4.833000000
H     1.555000000     5.511000000    -4.686000000
O    -1.409000000     4.732000000     1.127000000
H    -0.682000000     4.166000000     0.871000000
H    -1.873000000     4.237000000     1.802000000
O     1.522000000    -3.431000000     1.288000000
H     1.720000000    -3.381000000     0.353000000
H     0.567000000    -3.487000000     1.327000000
O    -2.500000000    -3.193000000    -2.138000000
H    -2.190000000    -3.107000000    -1.236000000
H    -2.533000000    -2.294000000    -2.466000000
O    -5.983000000    -3.305000000     2.933000000
H    -6.905000000    -3.229000000     3.177000000
H    -5.804000000    -4.245000000     2.963000000
O     2.570000000    -3.154000000    -7.237000000
H     3.137000000    -3.246000000    -8.002000000
H     2.890000000    -2.368000000    -6.795000000
O     3.502000000    -1.353000000    -5.346000000
H     3.573000000    -2.025000000    -4.668000000
H     4.404000000    -1.074000000    -5.504000000
O     2.990000000     0.680000000     4.141000000
H     3.758000000     0.822000000     4.695000000
H     3.282000000     0.047000000     3.485000000
O     3.319000000     5.151000000    -1.233000000
H     3.307000000     6.009000000    -0.808000000
H     2.593000000     5.182000000    -1.855000000
O     5.360000000     4.437000000    -4.202000000
H     4.958000000     3.570000000    -4.156000000
H     6.055000000     4.414000000    -3.544000000
O     0.313000000    -5.496000000    -3.008000000
H     0.031000000    -5.104000000    -3.834000000
H     0.628000000    -6.366000000    -3.250000000
O    -4.051000000    -2.764000000     1.141000000
H    -4.821000000    -3.064000000     1.624000000
H    -3.973000000    -1.837000000     1.368000000
O    -4.985000000    -2.946000000    -4.042000000
H    -4.500000000    -2.233000000    -3.627000000
H    -4.329000000    -3.627000000    -4.193000000
O    -3.358000000    -1.533000000     6.959000000
H    -3.886000000    -2.276000000     7.253000000
H    -3.566000000    -1.445000000     6.029000000
O    -1.149000000    -3.339000000     1.597000000
H    -2.078000000    -3.234000000     1.391000000
H    -1.021000000    -2.826000000     2.395000000
O    -3.858000000    -1.885000000     4.009000000
H    -4.642000000    -2.300000000     3.649000000
H    -3.624000000    -1.216000000     3.365000000
O    -3.373000000     4.101000000     3.116000000
H    -3.575000000     3.285000000     2.656000000
H    -3.972000000     4.109000000     3.862000000
O     5.421000000     2.513000000     3.155000000
H     4.544000000     2.470000000     2.776000000
H     6.010000000     2.484000000     2.401000000
O     3.469000000    -1.786000000     2.554000000
H     3.472000000    -2.506000000     3.184000000
H     2.576000000    -1.771000000     2.211000000
O    -1.705000000     3.503000000     7.756000000
H    -2.283000000     4.000000000     7.177000000
H    -1.708000000     2.617000000     7.394000000
O    -0.010000000     2.932000000    -3.012000000
H     0.650000000     3.625000000    -2.997000000
H    -0.366000000     2.921000000    -2.124000000
O     4.452000000     1.628000000    -3.962000000
H     3.626000000     1.747000000    -4.430000000
H     4.817000000     0.819000000    -4.322000000
O     1.277000000    -3.497000000    -1.320000000
H     1.114000000    -4.357000000    -1.708000000
H     0.561000000    -2.950000000    -1.641000000
O     7.558000000    -0.447000000     1.427000000
H     7.927000000    -1.153000000     1.959000000
H     6.795000000    -0.839000000     1.004000000
O     0.449000000    -1.065000000     7.161000000
H    -0.098000000    -0.292000000     7.024000000
H     1.300000000    -0.713000000     7.421000000
O     0.531000000     2.040000000     4.229000000
H     1.311000000     1.503000000     4.371000000
H    -0.022000000     1.511000000     3.654000000
O     4.253000000     1.766000000    -1.098000000
H     4.417000000     1.662000000    -2.035000000
H     4.225000000     0.872000000    -0.759000000
O     3.779000000    -3.412000000    -3.436000000
H     3.040000000    -3.740000000    -2.922000000
H     4.509000000    -3.389000000    -2.817000000
O     3.287000000     3.371000000     0.956000000
H     3.578000000     2.622000000     0.435000000
H     3.310000000     4.109000000     0.347000000
O    -4.152000000     2.212000000     1.309000000
H    -4.358000000     2.044000000     0.390000000
H    -3.818000000     1.377000000     1.637000000
O     1.348000000    -0.056000000    -6.359000000
H     2.082000000    -0.330000000    -5.810000000
H     1.540000000    -0.430000000    -7.219000000
O    -3.979000000     0.967000000    -4.824000000
H    -4.673000000     0.982000000    -5.483000000
H    -3.552000000     1.820000000    -4.905000000
O    -3.820000000    -0.869000000    -2.766000000
H    -4.006000000    -0.437000000    -1.932000000
H    -3.891000000    -0.172000000    -3.418000000
O    -1.613000000     0.626000000     6.600000000
H    -1.897000000     0.637000000     5.686000000
H    -2.241000000     0.052000000     7.039000000
O    -6.457000000     0.420000000     3.183000000
H    -6.782000000    -0.128000000     3.898000000
H    -6.887000000     0.074000000     2.401000000
O    -4.891000000     1.515000000    -1.270000000
H    -5.379000000     1.137000000    -2.002000000
H    -4.697000000     2.410000000    -1.549000000
O    -3.912000000     1.528000000     4.451000000
H    -4.752000000     1.412000000     4.007000000
H    -3.294000000     1.013000000     3.932000000
O     5.487000000    -1.884000000     0.614000000
H     5.030000000    -2.455000000    -0.004000000
H     4.877000000    -1.787000000     1.345000000
O    -6.724000000     3.164000000     1.984000000
H    -6.771000000     2.285000000     2.358000000
H    -5.809000000     3.262000000     1.718000000
O    -0.298000000    -3.643000000    -5.205000000
H    -0.555000000    -2.737000000    -5.373000000
H     0.169000000    -3.911000000    -5.996000000
O    -3.388000000    -5.212000000     3.938000000
H    -3.430000000    -4.256000000     3.901000000
H    -2.802000000    -5.453000000     3.220000000
O     2.761000000     4.534000000     3.299000000
H     2.281000000     3.963000000     3.900000000
H     2.739000000     4.071000000     2.461000000
O    -0.660000000     4.851000000     4.074000000
H    -0.386000000     3.970000000     4.327000000
H    -1.456000000     4.716000000     3.559000000
O     2.059000000     2.385000000    -5.290000000
H     1.312000000     2.146000000    -4.741000000
H     2.102000000     1.693000000    -5.950000000
O     1.585000000     2.881000000     6.908000000
H     1.023000000     2.529000000     6.217000000
H     1.398000000     3.820000000     6.913000000
