144
-2817.22738
O     4.387000000    -0.279000000     4.126000000
H     3.563000000     0.080000000     3.797000000
H     4.635000000     0.306000000     4.842000000
O     1.605000000    -5.230000000    -1.762000000
H     1.308000000    -5.030000000    -0.875000000
H     1.766000000    -6.173000000    -1.755000000
O     1.926000000    -2.728000000    -3.431000000
H     2.784000000    -2.322000000    -3.311000000
H     1.956000000    -3.517000000    -2.890000000
O    -1.957000000     4.242000000    -4.252000000
H    -2.698000000     4.824000000    -4.419000000
H    -2.230000000     3.714000000    -3.503000000
O     1.894000000    -3.792000000     3.861000000
H     1.006000000    -3.718000000     4.210000000
H     2.459000000    -3.735000000     4.632000000
O    -2.760000000    -3.025000000    -0.868000000
H    -2.490000000    -3.943000000    -0.839000000
H    -2.532000000    -2.681000000    -0.005000000
O     0.954000000     4.489000000    -3.530000000
H     1.427000000     3.828000000    -4.036000000
H     0.030000000     4.295000000    -3.686000000
O    -3.007000000    -2.462000000     2.268000000
H    -2.320000000    -3.129000000     2.279000000
H    -3.808000000    -2.947000000     2.072000000
O    -4.025000000    -0.962000000    -4.180000000
H    -3.163000000    -0.638000000    -3.918000000
H    -4.254000000    -1.602000000    -3.507000000
O    -2.699000000     0.523000000     2.028000000
H    -1.892000000     0.285000000     1.571000000
H    -3.011000000    -0.299000000     2.406000000
O     0.243000000     1.062000000     6.097000000
H     0.583000000     1.717000000     5.488000000
H    -0.699000000     1.230000000     6.128000000
O    -2.304000000     1.714000000     5.673000000
H    -3.006000000     1.297000000     5.172000000
H    -2.626000000     2.598000000     5.848000000
O    -0.978000000    -4.820000000    -3.435000000
H    -0.807000000    -4.107000000    -4.050000000
H    -0.326000000    -4.702000000    -2.743000000
O     1.393000000     4.052000000     2.199000000
H     1.972000000     3.404000000     1.798000000
H     1.926000000     4.845000000     2.258000000
O    -0.743000000    -1.584000000     5.719000000
H    -1.316000000    -1.353000000     4.988000000
H    -0.490000000    -0.743000000     6.100000000
O     4.293000000    -4.065000000    -1.641000000
H     3.367000000    -4.293000000    -1.722000000
H     4.743000000    -4.678000000    -2.222000000
O    -1.649000000     1.714000000    -5.674000000
H    -1.755000000     2.631000000    -5.419000000
H    -1.588000000     1.240000000    -4.845000000
O     1.224000000     1.595000000    -4.918000000
H     0.417000000     1.793000000    -4.443000000
H     1.317000000     0.645000000    -4.847000000
O    -1.441000000     4.822000000     0.784000000
H    -0.600000000     4.394000000     0.942000000
H    -1.230000000     5.566000000     0.220000000
O     0.625000000    -3.457000000    -7.116000000
H     0.217000000    -3.213000000    -6.285000000
H    -0.111000000    -3.636000000    -7.701000000
O    -4.102000000     2.790000000     0.461000000
H    -3.963000000     2.845000000    -0.485000000
H    -3.430000000     2.181000000     0.767000000
O     0.477000000    -2.330000000     8.041000000
H     0.049000000    -2.085000000     7.221000000
H     0.716000000    -1.496000000     8.446000000
O     5.416000000    -0.750000000     1.007000000
H     4.783000000    -1.468000000     1.022000000
H     5.805000000    -0.792000000     0.134000000
O    -6.476000000     0.227000000    -4.228000000
H    -6.955000000    -0.168000000    -4.956000000
H    -5.672000000    -0.288000000    -4.163000000
O     4.457000000    -4.980000000     1.184000000
H     4.270000000    -4.276000000     1.805000000
H     5.149000000    -4.629000000     0.625000000
O    -4.413000000     2.664000000    -2.374000000
H    -3.665000000     2.108000000    -2.590000000
H    -5.177000000     2.150000000    -2.634000000
O     4.379000000    -2.819000000     2.773000000
H     3.544000000    -2.807000000     3.241000000
H     4.735000000    -1.939000000     2.897000000
O     4.691000000    -1.397000000    -1.754000000
H     5.133000000    -1.209000000    -2.582000000
H     4.659000000    -2.353000000    -1.712000000
O     4.065000000     2.367000000     4.798000000
H     3.318000000     2.963000000     4.754000000
H     4.828000000     2.942000000     4.849000000
O     2.661000000     0.072000000     7.096000000
H     1.937000000     0.630000000     6.814000000
H     3.259000000     0.666000000     7.550000000
O    -3.650000000    -1.660000000     4.858000000
H    -3.629000000    -2.471000000     5.366000000
H    -3.255000000    -1.894000000     4.018000000
O    -4.735000000    -2.826000000    -2.440000000
H    -3.962000000    -2.830000000    -1.875000000
H    -5.294000000    -3.518000000    -2.085000000
O    -3.848000000    -3.028000000    -5.963000000
H    -4.082000000    -3.914000000    -5.685000000
H    -3.957000000    -2.494000000    -5.176000000
O    -3.889000000     2.775000000    -6.793000000
H    -3.141000000     2.337000000    -6.386000000
H    -4.553000000     2.091000000    -6.873000000
O    -0.274000000    -2.430000000    -4.674000000
H     0.571000000    -2.553000000    -4.241000000
H    -0.701000000    -1.736000000    -4.173000000
O     0.316000000     4.156000000     5.098000000
H     0.395000000     4.004000000     4.157000000
H     0.287000000     5.108000000     5.186000000
O    -3.778000000     3.459000000     3.095000000
H    -3.849000000     3.386000000     2.144000000
H    -3.408000000     4.330000000     3.241000000
O     3.036000000     2.548000000     0.675000000
H     3.597000000     1.940000000     0.195000000
H     2.828000000     3.234000000     0.041000000
O     1.853000000    -4.444000000     0.839000000
H     1.637000000    -3.951000000     1.632000000
H     2.743000000    -4.761000000     0.989000000
O     5.734000000     1.512000000     2.405000000
H     5.438000000     0.706000000     1.982000000
H     5.221000000     1.562000000     3.211000000
O    -1.447000000    -4.813000000     1.220000000
H    -1.870000000    -5.511000000     0.720000000
H    -0.686000000    -5.233000000     1.622000000
O    -1.477000000    -0.842000000    -6.894000000
H    -1.375000000    -1.561000000    -6.271000000
H    -1.554000000    -0.060000000    -6.347000000
O     0.634000000     2.259000000    -7.889000000
H     0.403000000     1.798000000    -7.082000000
H     0.988000000     1.579000000    -8.461000000
O    -4.567000000     5.276000000    -2.010000000
H    -4.487000000     4.353000000    -2.250000000
H    -5.264000000     5.293000000    -1.354000000
O     2.537000000     4.546000000    -1.141000000
H     1.682000000     4.573000000    -1.571000000
H     2.545000000     5.319000000    -0.577000000
O    -2.760000000     6.007000000     2.834000000
H    -2.258000000     5.539000000     2.167000000
H    -2.681000000     6.929000000     2.591000000
O     2.874000000     0.614000000    -2.240000000
H     2.246000000     0.675000000    -1.520000000
H     3.421000000    -0.139000000    -2.018000000
O    -0.960000000     6.811000000    -1.105000000
H    -0.469000000     7.554000000    -1.455000000
H    -1.777000000     6.808000000    -1.605000000
