144
-2809.07697
O    -3.659000000    -3.176000000     0.967000000
H    -3.467000000    -3.773000000     0.244000000
H    -2.813000000    -3.032000000     1.390000000
O    -2.085000000    -3.876000000    -4.745000000
H    -2.060000000    -4.684000000    -5.257000000
H    -1.959000000    -3.180000000    -5.390000000
O     3.253000000    -4.176000000     1.660000000
H     3.860000000    -3.492000000     1.377000000
H     2.501000000    -3.698000000     2.011000000
O    -4.126000000    -2.860000000    -3.245000000
H    -3.546000000    -3.275000000    -3.883000000
H    -4.839000000    -2.498000000    -3.770000000
O     3.190000000     1.743000000     5.200000000
H     4.014000000     1.294000000     5.391000000
H     2.983000000     1.492000000     4.300000000
O    -4.268000000     2.728000000    -2.065000000
H    -3.783000000     3.455000000    -2.456000000
H    -4.147000000     2.003000000    -2.678000000
O     0.482000000    -5.112000000    -4.620000000
H    -0.331000000    -4.608000000    -4.609000000
H     1.161000000    -4.478000000    -4.390000000
O     2.878000000     0.822000000    -3.361000000
H     3.324000000     1.446000000    -3.933000000
H     2.778000000     0.035000000    -3.897000000
O     4.231000000     0.087000000     1.195000000
H     3.812000000     0.474000000     1.965000000
H     5.133000000    -0.076000000     1.470000000
O     5.635000000     0.645000000     5.741000000
H     6.076000000     0.991000000     4.965000000
H     6.042000000     1.107000000     6.473000000
O     1.346000000     0.476000000     7.955000000
H     1.247000000    -0.328000000     7.444000000
H     0.793000000     1.115000000     7.505000000
O    -2.671000000     3.201000000     6.552000000
H    -1.861000000     3.161000000     7.060000000
H    -2.379000000     3.244000000     5.641000000
O    -2.430000000     5.860000000    -1.800000000
H    -2.043000000     6.539000000    -2.353000000
H    -1.680000000     5.371000000    -1.462000000
O     3.930000000     2.066000000    -0.712000000
H     3.678000000     1.781000000    -1.591000000
H     3.855000000     1.278000000    -0.174000000
O    -5.933000000    -1.654000000    -4.868000000
H    -6.807000000    -1.338000000    -5.099000000
H    -5.344000000    -0.950000000    -5.139000000
O     2.927000000    -3.272000000    -4.273000000
H     2.542000000    -2.451000000    -4.579000000
H     2.846000000    -3.233000000    -3.320000000
O    -3.651000000     0.537000000    -3.567000000
H    -3.819000000    -0.381000000    -3.356000000
H    -3.761000000     0.588000000    -4.516000000
O    -1.509000000    -1.567000000     5.692000000
H    -0.819000000    -0.909000000     5.607000000
H    -2.000000000    -1.506000000     4.873000000
O     0.384000000    -3.891000000     4.044000000
H     0.784000000    -4.228000000     4.845000000
H     0.996000000    -3.225000000     3.732000000
O    -6.894000000     2.649000000    -2.135000000
H    -5.942000000     2.572000000    -2.069000000
H    -7.214000000     2.428000000    -1.261000000
O    -4.996000000     3.618000000     0.483000000
H    -5.897000000     3.300000000     0.428000000
H    -4.629000000     3.451000000    -0.385000000
O    -0.626000000     4.458000000    -4.744000000
H    -0.558000000     3.926000000    -3.952000000
H    -1.556000000     4.437000000    -4.969000000
O     0.896000000     4.603000000     1.866000000
H     1.554000000     4.966000000     2.459000000
H     0.783000000     3.699000000     2.157000000
O    -3.024000000    -4.870000000    -1.218000000
H    -2.079000000    -4.849000000    -1.369000000
H    -3.408000000    -4.683000000    -2.074000000
O     0.162000000     0.392000000     5.325000000
H    -0.249000000     1.256000000     5.356000000
H     1.088000000     0.573000000     5.160000000
O     2.231000000    -2.042000000     3.522000000
H     2.885000000    -2.160000000     4.210000000
H     2.348000000    -1.136000000     3.234000000
O    -1.274000000    -2.391000000     2.272000000
H    -0.581000000    -2.206000000     1.639000000
H    -0.842000000    -2.895000000     2.962000000
O    -1.275000000     2.675000000     4.298000000
H    -2.052000000     2.649000000     3.739000000
H    -0.554000000     2.433000000     3.717000000
O    -1.198000000     5.404000000     4.113000000
H    -1.379000000     4.485000000     3.917000000
H    -0.243000000     5.461000000     4.133000000
O     3.963000000     4.066000000     4.128000000
H     3.626000000     3.219000000     4.421000000
H     4.535000000     4.354000000     4.839000000
O    -3.123000000    -0.794000000     3.410000000
H    -2.648000000    -1.208000000     2.690000000
H    -3.209000000     0.122000000     3.146000000
O    -3.538000000     2.532000000     2.484000000
H    -4.207000000     2.250000000     3.109000000
H    -4.035000000     2.863000000     1.736000000
O     1.583000000     6.289000000     4.564000000
H     2.330000000     6.450000000     3.987000000
H     1.875000000     6.595000000     5.423000000
O     0.918000000    -2.223000000     7.339000000
H     1.309000000    -2.183000000     6.466000000
H     0.049000000    -2.599000000     7.195000000
O     4.749000000    -2.636000000     0.038000000
H     4.752000000    -1.750000000     0.400000000
H     5.585000000    -2.710000000    -0.421000000
O     0.849000000     2.355000000    -1.872000000
H     0.846000000     1.727000000    -1.150000000
H     1.390000000     1.943000000    -2.546000000
O    -0.049000000     4.758000000    -0.703000000
H     0.103000000     4.839000000     0.239000000
H     0.352000000     3.921000000    -0.939000000
O     1.353000000    -6.100000000     1.801000000
H     1.232000000    -6.343000000     2.719000000
H     2.179000000    -5.616000000     1.789000000
O     1.868000000     3.468000000     6.685000000
H     2.070000000     4.300000000     6.256000000
H     2.296000000     2.807000000     6.141000000
O     1.807000000    -1.061000000    -5.437000000
H     1.198000000    -0.333000000    -5.313000000
H     1.615000000    -1.386000000    -6.317000000
O     6.928000000     0.347000000     1.482000000
H     7.569000000     0.431000000     0.777000000
H     7.053000000    -0.542000000     1.815000000
O    -0.219000000    -6.839000000    -2.563000000
H     0.037000000    -6.253000000    -3.275000000
H     0.428000000    -6.678000000    -1.876000000
O    -1.620000000     2.281000000    -3.295000000
H    -2.263000000     1.576000000    -3.372000000
H    -1.180000000     2.114000000    -2.461000000
O    -5.550000000    -2.399000000    -0.869000000
H    -5.005000000    -2.536000000    -1.644000000
H    -4.925000000    -2.295000000    -0.152000000
O     2.714000000    -3.944000000    -1.579000000
H     2.735000000    -4.898000000    -1.517000000
H     3.510000000    -3.657000000    -1.132000000
O     6.945000000     1.758000000     3.746000000
H     6.746000000     1.403000000     2.880000000
H     7.653000000     2.383000000     3.591000000
O     0.177000000     1.203000000    -5.778000000
H    -0.376000000     1.519000000    -6.493000000
H     0.105000000     1.878000000    -5.103000000
O     0.013000000    -4.231000000    -0.210000000
H     0.166000000    -5.043000000     0.273000000
H     0.884000000    -3.953000000    -0.494000000
