144
-2815.43804
O    -5.027000000     5.488000000     1.031000000
H    -4.401000000     5.037000000     0.465000000
H    -4.484000000     6.007000000     1.624000000
O    -3.070000000     6.907000000     2.327000000
H    -3.020000000     7.489000000     3.085000000
H    -2.334000000     6.305000000     2.438000000
O    -2.832000000     3.616000000     6.345000000
H    -3.400000000     4.359000000     6.552000000
H    -2.676000000     3.192000000     7.188000000
O     3.472000000    -3.369000000     2.130000000
H     2.955000000    -2.762000000     2.659000000
H     3.661000000    -2.885000000     1.326000000
O     0.411000000     4.150000000     6.885000000
H     1.120000000     4.676000000     7.255000000
H     0.524000000     4.229000000     5.938000000
O     2.206000000     1.503000000     5.536000000
H     3.043000000     1.924000000     5.734000000
H     2.025000000     1.747000000     4.628000000
O    -6.541000000     0.406000000     0.973000000
H    -7.454000000     0.144000000     1.091000000
H    -6.040000000    -0.393000000     1.139000000
O     0.306000000    -0.238000000    -7.280000000
H    -0.332000000    -0.022000000    -6.600000000
H    -0.223000000    -0.414000000    -8.058000000
O     0.849000000     1.773000000    -3.893000000
H     0.598000000     1.912000000    -2.980000000
H     0.045000000     1.932000000    -4.389000000
O     3.498000000    -3.506000000    -5.302000000
H     4.144000000    -3.071000000    -4.746000000
H     3.214000000    -2.828000000    -5.914000000
O     1.695000000    -1.102000000     3.252000000
H     1.313000000    -0.232000000     3.138000000
H     1.114000000    -1.538000000     3.875000000
O    -3.240000000    -2.407000000    -4.568000000
H    -4.079000000    -2.869000000    -4.569000000
H    -2.979000000    -2.383000000    -5.488000000
O     4.888000000    -0.315000000    -0.597000000
H     4.493000000    -0.930000000     0.020000000
H     5.515000000    -0.842000000    -1.093000000
O    -5.380000000     2.836000000    -3.859000000
H    -5.454000000     2.465000000    -2.980000000
H    -6.063000000     3.505000000    -3.894000000
O    -0.896000000    -4.161000000    -4.955000000
H    -1.713000000    -3.831000000    -4.581000000
H    -1.119000000    -4.381000000    -5.860000000
O    -4.713000000    -0.433000000    -3.159000000
H    -5.419000000    -1.026000000    -2.903000000
H    -4.022000000    -1.009000000    -3.486000000
O    -2.745000000    -2.989000000     3.279000000
H    -3.117000000    -2.162000000     2.972000000
H    -3.254000000    -3.663000000     2.830000000
O    -1.478000000    -6.002000000     1.634000000
H    -0.918000000    -5.327000000     2.018000000
H    -2.369000000    -5.693000000     1.796000000
O    -6.043000000    -2.602000000    -1.853000000
H    -6.072000000    -2.254000000    -0.962000000
H    -6.920000000    -2.954000000    -2.001000000
O    -5.600000000     2.567000000     2.605000000
H    -5.390000000     1.788000000     2.091000000
H    -4.749000000     2.906000000     2.885000000
O    -2.988000000     3.096000000     3.649000000
H    -2.977000000     3.501000000     4.517000000
H    -2.067000000     3.055000000     3.393000000
O     4.422000000     5.333000000     2.667000000
H     4.847000000     4.628000000     3.155000000
H     4.401000000     5.019000000     1.763000000
O     5.412000000     3.825000000     0.732000000
H     6.019000000     3.327000000     0.185000000
H     5.303000000     3.290000000     1.518000000
O    -5.651000000     1.570000000    -1.442000000
H    -5.236000000     0.923000000    -2.013000000
H    -6.013000000     1.056000000    -0.721000000
O     2.406000000    -0.632000000     7.068000000
H     3.166000000    -0.537000000     7.641000000
H     2.542000000     0.019000000     6.379000000
O    -0.909000000     5.219000000     1.785000000
H    -0.523000000     4.471000000     2.240000000
H    -0.169000000     5.798000000     1.605000000
O    -1.353000000     4.880000000    -1.350000000
H    -1.198000000     4.786000000    -0.410000000
H    -2.110000000     4.321000000    -1.525000000
O     0.896000000    -4.518000000     2.720000000
H     1.099000000    -5.372000000     3.103000000
H     1.645000000    -4.324000000     2.157000000
O     2.185000000     6.480000000     5.443000000
H     1.818000000     5.767000000     4.921000000
H     2.964000000     6.755000000     4.960000000
O    -1.469000000     0.589000000     4.367000000
H    -1.447000000     1.457000000     3.964000000
H    -1.138000000     0.728000000     5.254000000
O    -3.691000000    -0.194000000     3.129000000
H    -3.868000000     0.602000000     3.629000000
H    -2.761000000    -0.368000000     3.275000000
O    -3.977000000     3.579000000    -0.959000000
H    -4.558000000     4.120000000    -1.493000000
H    -4.517000000     2.831000000    -0.700000000
O     4.473000000     2.219000000     2.764000000
H     3.535000000     2.243000000     2.576000000
H     4.658000000     1.296000000     2.942000000
O     7.043000000     1.771000000    -0.166000000
H     7.559000000     2.054000000    -0.921000000
H     6.345000000     1.235000000    -0.540000000
O     1.560000000     4.474000000     3.920000000
H     1.048000000     3.725000000     3.616000000
H     2.386000000     4.411000000     3.439000000
O     4.386000000     3.050000000     6.408000000
H     4.959000000     3.383000000     5.718000000
H     4.705000000     3.469000000     7.207000000
O     3.748000000    -1.638000000    -3.376000000
H     3.104000000    -1.213000000    -3.942000000
H     4.517000000    -1.069000000    -3.418000000
O     3.261000000     1.757000000    -2.001000000
H     3.776000000     1.264000000    -1.362000000
H     2.856000000     1.086000000    -2.551000000
O    -1.395000000     0.277000000    -5.309000000
H    -1.990000000     1.023000000    -5.238000000
H    -1.864000000    -0.445000000    -4.891000000
O    -0.674000000    -6.913000000    -0.915000000
H     0.053000000    -6.331000000    -1.139000000
H    -1.073000000    -6.512000000    -0.143000000
O    -0.258000000     1.538000000     6.667000000
H    -0.251000000     2.495000000     6.656000000
H     0.547000000     1.288000000     6.215000000
O     1.557000000    -4.712000000    -3.980000000
H     2.204000000    -4.265000000    -4.526000000
H     0.716000000    -4.354000000    -4.263000000
O     3.796000000    -3.457000000    -1.199000000
H     3.647000000    -2.940000000    -1.991000000
H     4.284000000    -4.223000000    -1.500000000
O     1.376000000    -5.094000000    -1.318000000
H     1.365000000    -5.155000000    -2.273000000
H     1.919000000    -4.328000000    -1.133000000
O     4.430000000    -0.457000000     3.510000000
H     4.643000000    -0.510000000     4.441000000
H     3.485000000    -0.601000000     3.471000000
O     1.672000000    -0.642000000    -4.844000000
H     1.157000000     0.043000000    -4.418000000
H     1.235000000    -0.782000000    -5.684000000
O    -0.529000000    -6.817000000    -3.914000000
H    -1.013000000    -6.648000000    -3.105000000
H    -0.446000000    -5.957000000    -4.327000000
O     3.512000000     4.313000000    -1.136000000
H     3.340000000     3.424000000    -1.446000000
H     4.002000000     4.192000000    -0.322000000
