144
-2820.31205
O    -3.618000000     1.219000000    -4.498000000
H    -3.693000000     1.234000000    -3.544000000
H    -2.928000000     0.579000000    -4.673000000
O    -2.439000000     3.721000000    -4.368000000
H    -2.935000000     2.918000000    -4.529000000
H    -3.093000000     4.348000000    -4.059000000
O     6.771000000     2.505000000     1.739000000
H     7.180000000     2.845000000     2.535000000
H     6.173000000     1.824000000     2.049000000
O     4.356000000     4.855000000     2.350000000
H     4.371000000     4.146000000     1.708000000
H     5.107000000     5.402000000     2.122000000
O     0.257000000     6.842000000    -2.312000000
H     1.027000000     6.658000000    -1.774000000
H    -0.101000000     5.979000000    -2.520000000
O     0.711000000     1.739000000    -6.583000000
H     0.907000000     2.369000000    -7.276000000
H     1.085000000     2.129000000    -5.792000000
O    -3.379000000    -3.771000000    -0.381000000
H    -2.446000000    -3.614000000    -0.234000000
H    -3.803000000    -3.458000000     0.418000000
O     4.922000000     0.168000000     2.574000000
H     4.067000000     0.596000000     2.633000000
H     5.051000000    -0.230000000     3.435000000
O    -5.483000000     2.620000000    -5.766000000
H    -4.831000000     1.975000000    -5.489000000
H    -6.312000000     2.142000000    -5.755000000
O    -3.928000000     2.563000000    -2.005000000
H    -4.074000000     3.497000000    -2.153000000
H    -4.600000000     2.313000000    -1.371000000
O    -3.010000000     0.249000000    -7.694000000
H    -2.584000000     0.009000000    -6.872000000
H    -3.457000000    -0.550000000    -7.974000000
O     4.233000000     3.696000000    -0.122000000
H     4.417000000     2.830000000    -0.488000000
H     5.016000000     4.210000000    -0.318000000
O    -2.274000000    -2.163000000    -5.159000000
H    -2.796000000    -2.290000000    -4.366000000
H    -1.523000000    -2.745000000    -5.046000000
O     1.533000000     3.024000000     4.052000000
H     2.287000000     2.467000000     3.855000000
H     1.235000000     2.726000000     4.912000000
O    -1.863000000    -1.180000000     4.363000000
H    -0.980000000    -1.025000000     4.027000000
H    -1.748000000    -1.847000000     5.040000000
O     5.573000000    -1.358000000     4.723000000
H     6.490000000    -1.576000000     4.557000000
H     5.553000000    -1.086000000     5.640000000
O    -4.167000000    -2.673000000    -3.011000000
H    -5.078000000    -2.900000000    -3.199000000
H    -3.971000000    -3.130000000    -2.193000000
O     6.761000000    -0.749000000     0.494000000
H     6.317000000    -0.772000000    -0.354000000
H     6.145000000    -0.301000000     1.075000000
O     4.674000000     1.267000000     6.192000000
H     5.033000000     2.152000000     6.126000000
H     5.411000000     0.731000000     6.485000000
O     1.012000000    -4.510000000     1.256000000
H     1.135000000    -4.372000000     2.196000000
H     1.515000000    -5.301000000     1.063000000
O    -1.883000000     2.520000000     6.771000000
H    -1.482000000     2.246000000     5.946000000
H    -2.409000000     3.286000000     6.538000000
O    -0.565000000    -3.893000000    -1.048000000
H     0.163000000    -4.238000000    -0.532000000
H    -0.243000000    -3.060000000    -1.391000000
O    -1.242000000     4.779000000    -6.539000000
H    -0.355000000     4.551000000    -6.816000000
H    -1.384000000     4.266000000    -5.743000000
O    -1.209000000    -2.826000000    -7.760000000
H    -0.645000000    -2.083000000    -7.544000000
H    -1.607000000    -3.074000000    -6.925000000
O     1.989000000    -2.678000000    -1.011000000
H     1.931000000    -2.281000000    -1.880000000
H     1.326000000    -2.219000000    -0.494000000
O    -1.857000000     1.411000000     4.063000000
H    -2.268000000     1.216000000     3.221000000
H    -1.900000000     0.587000000     4.548000000
O     4.134000000    -3.084000000     2.310000000
H     4.374000000    -2.193000000     2.566000000
H     4.566000000    -3.216000000     1.466000000
O     0.816000000    -3.616000000     3.641000000
H     1.526000000    -3.789000000     4.258000000
H     0.798000000    -2.662000000     3.557000000
O    -3.733000000    -2.830000000     2.231000000
H    -2.846000000    -2.767000000     2.586000000
H    -4.263000000    -2.285000000     2.813000000
O    -0.050000000    -3.418000000    -4.560000000
H     0.014000000    -4.310000000    -4.217000000
H     0.846000000    -3.083000000    -4.526000000
O    -1.678000000    -6.161000000    -2.595000000
H    -1.051000000    -6.138000000    -3.317000000
H    -1.548000000    -5.330000000    -2.138000000
O    -0.717000000     3.591000000     2.481000000
H     0.177000000     3.595000000     2.821000000
H    -1.105000000     2.790000000     2.836000000
O    -5.846000000    -0.512000000    -2.154000000
H    -5.156000000    -1.175000000    -2.139000000
H    -5.918000000    -0.261000000    -3.075000000
O     0.942000000    -0.837000000    -7.517000000
H     0.928000000     0.016000000    -7.084000000
H     1.870000000    -1.005000000    -7.686000000
O    -1.123000000     3.815000000    -0.326000000
H    -1.389000000     2.898000000    -0.393000000
H    -0.710000000     3.882000000     0.535000000
O     1.239000000     1.532000000     6.461000000
H     2.103000000     1.134000000     6.561000000
H     0.693000000     0.834000000     6.100000000
O    -1.633000000    -3.352000000     6.250000000
H    -1.395000000    -4.279000000     6.237000000
H    -2.234000000    -3.269000000     6.990000000
O     2.547000000    -2.535000000    -3.942000000
H     3.284000000    -3.069000000    -3.645000000
H     2.923000000    -1.667000000    -4.086000000
O    -0.272000000     4.324000000    -2.927000000
H    -0.708000000     4.145000000    -2.095000000
H    -0.880000000     3.998000000    -3.591000000
O     0.097000000    -1.247000000     7.128000000
H     0.875000000    -1.757000000     7.353000000
H    -0.570000000    -1.903000000     6.928000000
O    -5.846000000     1.440000000    -0.403000000
H    -5.862000000     0.621000000    -0.899000000
H    -6.686000000     1.855000000    -0.601000000
O     2.064000000     3.769000000    -4.813000000
H     1.576000000     4.064000000    -4.044000000
H     2.287000000     4.575000000    -5.279000000
O     2.517000000    -2.814000000     7.361000000
H     2.842000000    -2.101000000     6.812000000
H     3.226000000    -2.981000000     7.981000000
O    -3.889000000     1.115000000     1.518000000
H    -4.205000000     1.084000000     0.615000000
H    -4.444000000     0.492000000     1.988000000
O    -0.628000000    -6.133000000     4.160000000
H    -0.433000000    -5.226000000     3.924000000
H     0.223000000    -6.511000000     4.382000000
O     2.825000000    -0.964000000     5.587000000
H     2.069000000    -1.322000000     5.121000000
H     3.307000000    -0.474000000     4.921000000
O     3.574000000     0.179000000    -3.451000000
H     3.711000000     0.581000000    -2.593000000
H     3.485000000     0.919000000    -4.051000000
O     2.363000000     5.869000000    -1.097000000
H     2.120000000     6.414000000    -0.349000000
H     2.714000000     5.069000000    -0.706000000
