144
-2826.67582
O    -6.212000000    -0.096000000    -4.407000000
H    -5.511000000     0.480000000    -4.102000000
H    -5.784000000    -0.940000000    -4.547000000
O    -3.115000000     5.330000000    -4.058000000
H    -3.100000000     5.047000000    -3.144000000
H    -3.946000000     4.998000000    -4.398000000
O     0.217000000     0.917000000    -5.366000000
H    -0.399000000     0.230000000    -5.113000000
H     1.067000000     0.600000000    -5.062000000
O    -1.037000000    -5.029000000    -0.087000000
H    -0.580000000    -5.186000000     0.739000000
H    -1.570000000    -4.251000000     0.078000000
O    -1.875000000     4.985000000    -1.483000000
H    -1.603000000     4.158000000    -1.085000000
H    -1.089000000     5.309000000    -1.923000000
O     4.993000000     1.005000000     3.220000000
H     4.041000000     1.053000000     3.129000000
H     5.140000000     0.929000000     4.163000000
O    -4.323000000     1.645000000    -3.607000000
H    -4.130000000     1.573000000    -4.542000000
H    -4.483000000     2.579000000    -3.468000000
O    -3.528000000     0.726000000    -6.044000000
H    -4.079000000    -0.016000000    -6.294000000
H    -2.674000000     0.531000000    -6.431000000
O     5.839000000     3.010000000     1.841000000
H     5.504000000     2.334000000     2.430000000
H     6.286000000     2.524000000     1.148000000
O    -4.038000000    -1.884000000    -4.778000000
H    -3.981000000    -2.445000000    -4.005000000
H    -3.144000000    -1.567000000    -4.910000000
O     2.373000000     3.185000000     3.841000000
H     2.346000000     2.250000000     3.639000000
H     2.652000000     3.225000000     4.755000000
O    -1.699000000    -1.232000000     4.206000000
H    -0.770000000    -1.460000000     4.161000000
H    -2.149000000    -2.074000000     4.280000000
O    -1.967000000    -4.006000000    -4.320000000
H    -1.091000000    -3.712000000    -4.069000000
H    -2.410000000    -4.176000000    -3.488000000
O     6.215000000    -0.707000000     1.032000000
H     5.502000000    -0.447000000     0.449000000
H     5.899000000    -0.489000000     1.909000000
O     5.334000000     0.283000000     5.873000000
H     6.007000000     0.583000000     6.485000000
H     5.537000000    -0.641000000     5.729000000
O     0.265000000    -5.241000000     2.517000000
H     1.155000000    -4.890000000     2.520000000
H    -0.057000000    -5.085000000     3.405000000
O    -1.378000000     1.950000000     6.089000000
H    -1.766000000     1.198000000     6.535000000
H    -1.266000000     1.660000000     5.184000000
O     4.117000000    -3.134000000     0.576000000
H     3.182000000    -3.332000000     0.526000000
H     4.540000000    -3.990000000     0.643000000
O    -5.455000000    -2.060000000     0.888000000
H    -5.200000000    -1.586000000     0.096000000
H    -5.968000000    -2.802000000     0.567000000
O    -5.583000000    -4.441000000    -0.560000000
H    -6.114000000    -5.235000000    -0.623000000
H    -5.093000000    -4.415000000    -1.381000000
O     3.114000000     6.003000000    -1.087000000
H     3.084000000     5.160000000    -0.635000000
H     3.974000000     6.362000000    -0.868000000
O     1.489000000    -3.191000000     0.031000000
H     1.633000000    -2.431000000    -0.533000000
H     0.703000000    -2.973000000     0.532000000
O    -1.948000000     1.252000000     3.346000000
H    -2.541000000     1.231000000     2.595000000
H    -1.819000000     0.331000000     3.575000000
O     2.388000000    -3.405000000     3.463000000
H     1.866000000    -2.605000000     3.534000000
H     3.175000000    -3.136000000     2.990000000
O     0.016000000    -3.386000000     5.489000000
H     0.099000000    -3.061000000     6.386000000
H     0.441000000    -2.717000000     4.952000000
O    -3.007000000    -3.071000000     1.345000000
H    -3.053000000    -3.227000000     2.289000000
H    -3.865000000    -2.711000000     1.120000000
O     0.715000000    -3.860000000    -3.675000000
H     1.012000000    -4.495000000    -3.022000000
H     1.236000000    -3.076000000    -3.501000000
O    -0.238000000     3.346000000     2.361000000
H     0.322000000     3.394000000     3.136000000
H    -0.808000000     2.594000000     2.525000000
O     0.855000000     4.246000000    -0.042000000
H     0.508000000     4.302000000     0.849000000
H     1.671000000     3.754000000     0.050000000
O    -5.664000000    -0.690000000    -1.646000000
H    -5.305000000     0.153000000    -1.921000000
H    -5.952000000    -1.105000000    -2.459000000
O    -1.417000000    -1.244000000    -6.097000000
H    -0.653000000    -1.804000000    -5.969000000
H    -1.853000000    -1.606000000    -6.868000000
O    -1.795000000     2.500000000    -0.176000000
H    -1.987000000     1.991000000    -0.964000000
H    -0.920000000     2.214000000     0.086000000
O     3.363000000    -5.426000000     5.174000000
H     3.056000000    -4.727000000     4.597000000
H     3.877000000    -4.976000000     5.844000000
O     1.402000000     2.623000000     7.044000000
H     1.929000000     1.830000000     6.944000000
H     0.504000000     2.336000000     6.874000000
O     5.840000000     2.195000000    -1.329000000
H     6.495000000     2.433000000    -1.985000000
H     5.653000000     1.272000000    -1.502000000
O    -2.589000000    -6.751000000    -1.244000000
H    -1.977000000    -6.037000000    -1.071000000
H    -3.289000000    -6.628000000    -0.602000000
O    -3.508000000    -3.405000000     3.988000000
H    -3.306000000    -4.205000000     4.473000000
H    -4.450000000    -3.282000000     4.110000000
O     2.202000000    -1.898000000    -2.682000000
H     3.071000000    -2.298000000    -2.692000000
H     2.359000000    -0.978000000    -2.892000000
O    -0.390000000     5.206000000    -5.433000000
H    -1.032000000     5.264000000    -4.726000000
H    -0.755000000     5.748000000    -6.133000000
O     2.119000000     5.634000000     3.001000000
H     2.172000000     4.828000000     3.514000000
H     2.897000000     5.616000000     2.445000000
O    -2.416000000    -1.114000000     6.904000000
H    -2.471000000    -0.997000000     5.955000000
H    -2.345000000    -2.060000000     7.025000000
O     2.667000000     3.165000000    -3.992000000
H     2.683000000     4.077000000    -3.705000000
H     2.196000000     3.184000000    -4.825000000
O    -0.625000000     2.953000000    -6.976000000
H    -0.489000000     2.231000000    -6.363000000
H    -0.281000000     3.722000000    -6.522000000
O     0.532000000    -2.999000000    -6.189000000
H     0.534000000    -3.395000000    -5.317000000
H     1.458000000    -2.907000000    -6.412000000
O    -3.843000000     1.899000000     1.349000000
H    -4.430000000     2.450000000     0.832000000
H    -3.078000000     1.769000000     0.788000000
O     2.281000000     0.276000000     5.980000000
H     2.026000000     0.078000000     5.079000000
H     3.216000000     0.074000000     6.014000000
O     2.645000000     0.447000000    -3.951000000
H     2.750000000     1.329000000    -3.593000000
H     3.478000000     0.263000000    -4.383000000
O     3.501000000     3.288000000    -0.009000000
H     3.979000000     2.916000000    -0.750000000
H     4.130000000     3.274000000     0.713000000
