144
-2817.08402
O    -4.902000000     2.545000000    -2.943000000
H    -3.954000000     2.577000000    -2.817000000
H    -5.058000000     1.702000000    -3.370000000
O     4.248000000    -3.388000000     6.247000000
H     3.959000000    -2.738000000     5.606000000
H     5.067000000    -3.034000000     6.593000000
O     6.867000000     0.364000000    -1.139000000
H     6.313000000     0.599000000    -0.395000000
H     6.691000000     1.041000000    -1.792000000
O    -5.262000000    -3.140000000    -5.539000000
H    -6.146000000    -3.128000000    -5.170000000
H    -4.716000000    -3.502000000    -4.842000000
O     5.894000000     2.659000000     6.061000000
H     5.994000000     1.725000000     6.245000000
H     5.505000000     2.690000000     5.187000000
O    -1.629000000    -4.327000000     1.212000000
H    -0.783000000    -3.885000000     1.146000000
H    -1.610000000    -4.755000000     2.068000000
O     3.659000000    -0.881000000     4.964000000
H     2.982000000    -0.489000000     4.412000000
H     4.460000000    -0.814000000     4.444000000
O     2.316000000     2.360000000     4.850000000
H     2.006000000     1.489000000     4.602000000
H     2.255000000     2.373000000     5.805000000
O    -2.190000000     2.601000000    -1.995000000
H    -1.793000000     3.217000000    -1.379000000
H    -1.626000000     1.829000000    -1.959000000
O    -0.034000000     2.272000000    -4.430000000
H    -0.554000000     1.939000000    -5.161000000
H    -0.513000000     3.044000000    -4.128000000
O     2.251000000     3.819000000     2.394000000
H     1.959000000     3.264000000     3.116000000
H     2.860000000     3.270000000     1.900000000
O    -2.120000000     1.406000000    -6.646000000
H    -1.561000000     1.027000000    -7.324000000
H    -2.902000000     0.855000000    -6.644000000
O    -5.175000000    -0.114000000    -3.729000000
H    -5.870000000    -0.710000000    -3.450000000
H    -4.800000000    -0.528000000    -4.506000000
O     1.046000000     4.690000000     5.323000000
H     1.509000000     4.121000000     4.709000000
H     1.740000000     5.100000000     5.840000000
O    -0.407000000     1.558000000     5.788000000
H    -0.328000000     1.151000000     4.924000000
H     0.485000000     1.555000000     6.135000000
O    -1.992000000    -3.530000000    -5.317000000
H    -2.147000000    -2.586000000    -5.330000000
H    -2.829000000    -3.906000000    -5.045000000
O     5.032000000     1.508000000     0.722000000
H     4.932000000     2.066000000    -0.049000000
H     4.135000000     1.324000000     1.003000000
O    -3.476000000    -4.334000000    -0.934000000
H    -3.930000000    -4.832000000    -0.255000000
H    -2.650000000    -4.073000000    -0.528000000
O    -0.852000000    -4.860000000     3.768000000
H    -0.311000000    -4.070000000     3.746000000
H    -1.184000000    -4.897000000     4.665000000
O    -3.937000000    -3.671000000     5.067000000
H    -3.830000000    -3.401000000     4.154000000
H    -4.544000000    -3.029000000     5.436000000
O    -3.824000000    -2.798000000     2.523000000
H    -4.374000000    -2.132000000     2.110000000
H    -3.194000000    -3.042000000     1.846000000
O     2.985000000    -4.072000000     3.185000000
H     2.733000000    -4.742000000     2.549000000
H     3.780000000    -3.684000000     2.821000000
O    -6.408000000    -3.322000000    -0.458000000
H    -6.803000000    -2.553000000    -0.869000000
H    -5.474000000    -3.245000000    -0.655000000
O     2.031000000     4.274000000    -2.872000000
H     1.897000000     4.354000000    -3.816000000
H     1.217000000     4.599000000    -2.486000000
O     5.246000000    -1.822000000     0.053000000
H     5.586000000    -1.508000000    -0.785000000
H     4.934000000    -2.708000000    -0.132000000
O    -4.160000000    -4.681000000    -3.704000000
H    -4.671000000    -5.482000000    -3.826000000
H    -3.819000000    -4.748000000    -2.812000000
O     1.047000000    -2.557000000     4.094000000
H     1.554000000    -1.747000000     4.052000000
H     1.649000000    -3.234000000     3.785000000
O    -2.871000000     0.202000000     4.012000000
H    -3.662000000    -0.301000000     3.817000000
H    -2.276000000    -0.432000000     4.413000000
O     5.201000000    -0.842000000     2.581000000
H     5.418000000    -1.204000000     1.722000000
H     4.351000000    -0.421000000     2.455000000
O     2.366000000    -1.531000000    -1.424000000
H     1.575000000    -1.111000000    -1.085000000
H     2.904000000    -0.806000000    -1.743000000
O     2.334000000    -3.865000000    -2.395000000
H     2.263000000    -2.937000000    -2.168000000
H     2.587000000    -3.867000000    -3.318000000
O    -5.474000000     2.143000000    -0.052000000
H    -5.281000000     2.310000000    -0.975000000
H    -4.622000000     2.189000000     0.383000000
O     2.473000000     1.346000000    -4.765000000
H     1.632000000     1.707000000    -4.485000000
H     2.250000000     0.743000000    -5.474000000
O    -5.173000000    -0.351000000     1.646000000
H    -5.133000000     0.261000000     0.911000000
H    -6.095000000    -0.355000000     1.904000000
O    -3.062000000     2.249000000     1.205000000
H    -2.785000000     1.455000000     1.661000000
H    -2.271000000     2.562000000     0.766000000
O    -1.202000000    -1.539000000     5.730000000
H    -0.983000000    -1.588000000     6.661000000
H    -0.361000000    -1.627000000     5.281000000
O     5.770000000     2.160000000    -2.726000000
H     5.113000000     2.483000000    -2.110000000
H     6.273000000     2.937000000    -2.970000000
O    -0.794000000     3.787000000     0.426000000
H    -0.110000000     3.593000000     1.067000000
H    -0.552000000     4.640000000     0.068000000
O     1.203000000    -3.634000000     0.630000000
H     1.265000000    -3.635000000    -0.325000000
H     1.671000000    -2.845000000     0.901000000
O     1.738000000     6.413000000     2.658000000
H     1.842000000     5.462000000     2.686000000
H     1.206000000     6.618000000     3.426000000
O     3.974000000     0.101000000    -2.902000000
H     4.516000000     0.823000000    -2.584000000
H     3.574000000     0.436000000    -3.704000000
O     3.474000000    -0.554000000     7.679000000
H     3.925000000    -0.729000000     6.853000000
H     3.986000000    -1.027000000     8.336000000
O     4.986000000     2.046000000     3.284000000
H     4.068000000     1.784000000     3.359000000
H     5.231000000     1.809000000     2.390000000
O     1.760000000     1.439000000     7.313000000
H     2.366000000     0.717000000     7.150000000
H     1.558000000     1.377000000     8.246000000
O     0.594000000    -2.858000000    -4.271000000
H     0.066000000    -3.538000000    -4.690000000
H     0.053000000    -2.549000000    -3.544000000
O     5.786000000     4.945000000     2.929000000
H     6.674000000     4.630000000     2.761000000
H     5.288000000     4.156000000     3.142000000
O     3.981000000     3.336000000    -1.177000000
H     4.123000000     4.043000000    -0.547000000
H     3.171000000     3.575000000    -1.627000000
O     1.216000000    -2.200000000    -6.758000000
H     1.057000000    -2.330000000    -5.823000000
H     1.546000000    -3.045000000    -7.064000000
