144
-2788.35021
O     2.701000000     4.118000000    -1.318000000
H     3.513000000     3.674000000    -1.074000000
H     2.245000000     3.492000000    -1.880000000
O    -1.228000000    -1.259000000     2.546000000
H    -0.778000000    -0.920000000     1.772000000
H    -1.414000000    -2.173000000     2.334000000
O     1.575000000     4.952000000     5.450000000
H     2.382000000     4.522000000     5.733000000
H     1.571000000     5.786000000     5.918000000
O    -2.470000000     4.323000000     1.186000000
H    -2.858000000     5.049000000     0.698000000
H    -1.543000000     4.342000000     0.946000000
O     3.810000000    -0.895000000     5.225000000
H     3.413000000    -0.038000000     5.070000000
H     4.502000000    -0.962000000     4.568000000
O    -0.016000000    -4.491000000    -2.156000000
H     0.463000000    -4.845000000    -2.906000000
H     0.650000000    -4.033000000    -1.642000000
O    -5.254000000     1.620000000    -2.477000000
H    -4.642000000     1.882000000    -3.164000000
H    -5.010000000     2.155000000    -1.722000000
O     1.729000000     6.679000000     1.288000000
H     1.709000000     5.879000000     1.814000000
H     1.540000000     7.380000000     1.912000000
O    -2.190000000    -2.587000000    -4.484000000
H    -1.832000000    -2.925000000    -3.664000000
H    -2.436000000    -3.370000000    -4.978000000
O     0.942000000     2.198000000    -2.380000000
H     1.814000000     1.912000000    -2.654000000
H     0.601000000     1.466000000    -1.867000000
O    -2.180000000     0.976000000     4.030000000
H    -1.859000000     0.325000000     3.405000000
H    -1.472000000     1.617000000     4.091000000
O     5.500000000    -1.655000000     3.137000000
H     6.161000000    -1.863000000     2.477000000
H     4.691000000    -1.542000000     2.639000000
O    -5.764000000    -0.960000000    -2.811000000
H    -5.529000000    -0.038000000    -2.702000000
H    -5.467000000    -1.379000000    -2.004000000
O     5.639000000     0.385000000     0.959000000
H     4.880000000     0.018000000     1.412000000
H     5.385000000     1.285000000     0.755000000
O    -4.741000000     2.430000000     4.302000000
H    -3.899000000     1.982000000     4.220000000
H    -4.516000000     3.360000000     4.338000000
O    -6.774000000     2.594000000    -4.561000000
H    -7.426000000     1.973000000    -4.886000000
H    -6.145000000     2.053000000    -4.084000000
O    -0.148000000    -1.671000000     5.008000000
H    -0.290000000    -0.789000000     5.351000000
H    -0.390000000    -1.610000000     4.084000000
O     5.252000000     3.140000000     1.828000000
H     4.447000000     2.642000000     1.971000000
H     4.980000000     4.056000000     1.880000000
O     5.897000000    -3.117000000     0.082000000
H     6.796000000    -2.806000000     0.189000000
H     5.775000000    -3.173000000    -0.866000000
O     1.621000000     4.032000000     2.734000000
H     1.654000000     4.211000000     3.674000000
H     2.122000000     3.224000000     2.626000000
O    -3.850000000     5.096000000     3.452000000
H    -3.644000000     4.657000000     2.626000000
H    -2.996000000     5.292000000     3.838000000
O    -2.037000000    -4.653000000     0.574000000
H    -1.172000000    -4.443000000     0.224000000
H    -1.911000000    -4.686000000     1.522000000
O     4.592000000     3.715000000     5.893000000
H     4.468000000     3.633000000     6.839000000
H     5.470000000     4.085000000     5.798000000
O     2.754000000     1.724000000     4.699000000
H     3.454000000     2.330000000     4.938000000
H     2.695000000     1.789000000     3.746000000
O    -0.631000000    -7.360000000     0.435000000
H    -0.567000000    -6.419000000     0.599000000
H    -1.380000000    -7.644000000     0.959000000
O     0.958000000    -4.707000000     1.296000000
H     1.671000000    -4.952000000     0.706000000
H     1.304000000    -3.968000000     1.796000000
O     7.676000000     3.399000000     2.766000000
H     6.929000000     3.354000000     2.168000000
H     8.416000000     3.637000000     2.207000000
O     8.265000000     0.713000000     0.349000000
H     8.669000000     0.537000000     1.199000000
H     7.329000000     0.569000000     0.495000000
O    -2.196000000    -6.581000000    -2.585000000
H    -1.778000000    -5.820000000    -2.183000000
H    -2.940000000    -6.775000000    -2.014000000
O    -3.941000000     0.141000000     1.487000000
H    -3.564000000    -0.733000000     1.587000000
H    -3.989000000     0.484000000     2.379000000
O     4.492000000    -4.535000000     3.112000000
H     4.370000000    -4.388000000     2.175000000
H     3.937000000    -3.878000000     3.532000000
O    -5.020000000    -2.391000000    -5.243000000
H    -4.107000000    -2.445000000    -4.963000000
H    -5.443000000    -1.847000000    -4.579000000
O     3.567000000    -5.052000000     0.106000000
H     4.220000000    -4.352000000     0.126000000
H     3.612000000    -5.396000000    -0.786000000
O    -3.883000000     2.770000000    -4.556000000
H    -2.937000000     2.734000000    -4.694000000
H    -4.130000000     3.656000000    -4.822000000
O     1.818000000    -2.479000000     2.698000000
H     1.987000000    -2.332000000     3.628000000
H     2.210000000    -1.724000000     2.260000000
O     6.460000000    -2.069000000     6.194000000
H     6.196000000    -2.383000000     5.329000000
H     7.060000000    -1.346000000     6.012000000
O     3.431000000     1.262000000    -3.490000000
H     3.761000000     1.954000000    -4.063000000
H     4.169000000     0.660000000    -3.393000000
O    -0.523000000     3.865000000    -4.203000000
H     0.280000000     4.228000000    -4.577000000
H    -0.246000000     3.048000000    -3.788000000
O     5.568000000     3.281000000    -0.935000000
H     6.275000000     2.809000000    -1.374000000
H     5.965000000     3.613000000    -0.130000000
O     4.401000000     5.709000000     1.599000000
H     5.055000000     6.402000000     1.504000000
H     3.564000000     6.146000000     1.442000000
O    -2.330000000    -0.832000000    -6.779000000
H    -2.289000000    -1.461000000    -6.059000000
H    -2.634000000    -0.020000000    -6.372000000
O     0.214000000     5.239000000    -0.279000000
H     0.970000000     4.884000000    -0.746000000
H     0.581000000     5.911000000     0.295000000
O     0.318000000     0.677000000     6.100000000
H     0.181000000     1.409000000     6.701000000
H     1.146000000     0.879000000     5.663000000
O    -1.828000000     5.230000000    -2.057000000
H    -1.382000000     4.772000000    -2.769000000
H    -1.307000000     5.030000000    -1.280000000
O    -6.196000000     0.064000000     0.170000000
H    -6.149000000     0.735000000    -0.512000000
H    -5.331000000     0.077000000     0.578000000
O    -5.539000000     4.842000000    -1.610000000
H    -5.151000000     4.456000000    -2.395000000
H    -5.192000000     4.317000000    -0.889000000
O    -4.210000000     2.662000000    -0.041000000
H    -3.648000000     3.300000000     0.399000000
H    -4.052000000     1.841000000     0.425000000
O    -1.037000000     5.090000000     4.624000000
H    -1.265000000     5.990000000     4.856000000
H    -0.100000000     5.025000000     4.808000000
