144
-2824.94456
O     0.889000000     6.359000000    -2.307000000
H     0.933000000     5.666000000    -2.967000000
H     1.554000000     6.119000000    -1.662000000
O    -0.787000000    -2.909000000     4.338000000
H    -1.167000000    -2.454000000     3.586000000
H    -0.882000000    -3.838000000     4.129000000
O     0.491000000     3.467000000     5.447000000
H     0.488000000     3.859000000     4.573000000
H     1.411000000     3.268000000     5.617000000
O    -0.571000000     6.383000000     1.590000000
H    -0.937000000     6.328000000     0.707000000
H    -0.366000000     7.310000000     1.708000000
O     4.347000000    -2.544000000     3.264000000
H     3.413000000    -2.479000000     3.467000000
H     4.578000000    -1.682000000     2.919000000
O     1.128000000    -2.107000000    -3.858000000
H     0.405000000    -1.845000000    -4.428000000
H     1.216000000    -1.386000000    -3.235000000
O     3.899000000     6.791000000     1.152000000
H     4.470000000     6.862000000     1.917000000
H     4.367000000     7.258000000     0.460000000
O    -0.922000000    -0.941000000    -5.273000000
H    -1.653000000    -1.337000000    -5.747000000
H    -1.327000000    -0.267000000    -4.727000000
O     1.775000000     0.033000000    -2.305000000
H     2.423000000     0.716000000    -2.132000000
H     0.995000000     0.315000000    -1.827000000
O    -1.347000000     1.763000000     3.865000000
H    -1.079000000     2.427000000     4.499000000
H    -1.483000000     2.249000000     3.052000000
O     0.173000000     0.232000000     5.728000000
H     0.831000000     0.421000000     5.059000000
H    -0.629000000     0.637000000     5.396000000
O     4.709000000    -0.257000000     1.926000000
H     5.252000000    -0.074000000     1.159000000
H     4.108000000     0.486000000     1.977000000
O     3.505000000    -1.684000000     6.000000000
H     2.819000000    -1.795000000     5.342000000
H     3.099000000    -1.145000000     6.680000000
O     2.760000000     5.453000000    -0.793000000
H     2.983000000     6.024000000    -0.059000000
H     2.573000000     4.605000000    -0.389000000
O    -1.612000000    -0.728000000     2.845000000
H    -0.981000000    -0.589000000     2.140000000
H    -1.807000000     0.151000000     3.170000000
O     0.383000000    -4.921000000    -4.121000000
H     0.590000000    -3.999000000    -3.970000000
H     0.194000000    -5.270000000    -3.250000000
O    -2.507000000     3.558000000     1.508000000
H    -2.180000000     4.043000000     0.751000000
H    -3.026000000     4.197000000     1.996000000
O     0.931000000     4.356000000     2.762000000
H     0.158000000     4.906000000     2.640000000
H     1.291000000     4.250000000     1.881000000
O    -3.025000000    -4.744000000     1.217000000
H    -2.120000000    -4.618000000     0.931000000
H    -3.284000000    -5.581000000     0.832000000
O    -7.187000000    -2.359000000     0.150000000
H    -6.889000000    -3.095000000     0.685000000
H    -6.454000000    -1.743000000     0.162000000
O    -4.925000000    -0.251000000    -2.035000000
H    -5.224000000    -1.117000000    -2.314000000
H    -5.023000000    -0.259000000    -1.083000000
O     3.044000000     4.590000000     4.421000000
H     3.230000000     5.516000000     4.572000000
H     2.219000000     4.588000000     3.936000000
O     7.500000000     1.828000000     1.825000000
H     7.004000000     2.427000000     2.382000000
H     6.838000000     1.403000000     1.280000000
O    -6.127000000    -3.819000000     2.314000000
H    -5.289000000    -3.368000000     2.219000000
H    -6.311000000    -3.787000000     3.253000000
O     1.726000000    -2.031000000     4.004000000
H     1.687000000    -1.078000000     4.082000000
H     0.810000000    -2.302000000     3.933000000
O     2.328000000    -2.648000000    -1.330000000
H     2.129000000    -2.633000000    -2.266000000
H     1.836000000    -1.911000000    -0.968000000
O     6.961000000     3.947000000     0.059000000
H     6.075000000     3.950000000     0.420000000
H     7.417000000     3.261000000     0.548000000
O     4.828000000     3.391000000     1.647000000
H     4.601000000     3.865000000     2.446000000
H     4.059000000     2.851000000     1.462000000
O    -2.471000000    -6.753000000    -1.767000000
H    -3.034000000    -7.055000000    -1.054000000
H    -3.059000000    -6.274000000    -2.350000000
O    -4.116000000     1.888000000     0.169000000
H    -4.050000000     2.552000000    -0.517000000
H    -3.504000000     2.180000000     0.845000000
O     4.699000000    -3.222000000    -0.067000000
H     3.991000000    -3.684000000    -0.517000000
H     4.439000000    -2.301000000    -0.093000000
O    -2.793000000     1.017000000    -4.151000000
H    -3.616000000     0.677000000    -4.500000000
H    -3.001000000     1.269000000    -3.251000000
O     3.113000000    -5.889000000    -0.912000000
H     3.109000000    -5.627000000     0.008000000
H     2.383000000    -5.407000000    -1.302000000
O    -0.559000000     2.175000000    -5.181000000
H    -1.459000000     1.979000000    -4.920000000
H    -0.633000000     2.484000000    -6.084000000
O    -5.652000000    -3.018000000    -2.294000000
H    -6.477000000    -3.479000000    -2.139000000
H    -5.045000000    -3.702000000    -2.575000000
O     4.434000000     5.381000000    -2.869000000
H     3.947000000     5.495000000    -2.053000000
H     3.759000000     5.306000000    -3.543000000
O     1.380000000     4.010000000    -3.934000000
H     1.032000000     3.121000000    -4.003000000
H     1.338000000     4.353000000    -4.827000000
O     2.413000000     0.763000000     4.251000000
H     2.554000000     1.299000000     3.471000000
H     3.135000000     0.996000000     4.835000000
O    -1.407000000     5.804000000    -0.979000000
H    -0.557000000     5.870000000    -1.416000000
H    -1.955000000     5.315000000    -1.593000000
O    -5.035000000    -0.629000000     0.671000000
H    -4.701000000     0.264000000     0.581000000
H    -4.471000000    -1.030000000     1.331000000
O     3.358000000     2.118000000    -1.798000000
H     3.424000000     2.403000000    -0.886000000
H     3.394000000     2.930000000    -2.305000000
O    -2.267000000     4.242000000    -3.057000000
H    -3.204000000     4.054000000    -3.112000000
H    -1.859000000     3.598000000    -3.635000000
O     6.294000000     0.476000000    -0.201000000
H     7.075000000    -0.071000000    -0.121000000
H     6.421000000     0.957000000    -1.019000000
O     3.871000000     2.531000000     5.976000000
H     3.506000000     3.337000000     5.611000000
H     4.810000000     2.593000000     5.803000000
O     0.248000000    -5.650000000    -1.590000000
H    -0.472000000    -6.280000000    -1.556000000
H     0.513000000    -5.538000000    -0.677000000
O    -4.852000000     2.644000000    -2.206000000
H    -5.238000000     1.799000000    -2.438000000
H    -5.228000000     3.260000000    -2.835000000
O    -3.687000000    -2.402000000     2.555000000
H    -3.141000000    -3.140000000     2.283000000
H    -3.065000000    -1.701000000     2.747000000
O     0.204000000    -5.329000000     1.346000000
H    -0.310000000    -5.387000000     2.152000000
H     1.092000000    -5.570000000     1.610000000
