144
-2808.22584
O    -2.012000000    -1.237000000     4.390000000
H    -1.901000000    -2.107000000     4.772000000
H    -2.957000000    -1.145000000     4.273000000
O    -2.519000000     4.151000000     2.885000000
H    -3.320000000     3.691000000     2.635000000
H    -1.867000000     3.859000000     2.249000000
O    -5.695000000    -3.680000000    -3.468000000
H    -6.393000000    -4.241000000    -3.808000000
H    -5.350000000    -4.158000000    -2.714000000
O    -4.434000000     0.885000000     0.064000000
H    -4.548000000    -0.058000000     0.183000000
H    -5.026000000     1.109000000    -0.654000000
O    -1.108000000    -7.986000000     1.437000000
H    -0.287000000    -8.434000000     1.235000000
H    -0.928000000    -7.063000000     1.259000000
O     6.109000000     3.310000000    -0.216000000
H     5.321000000     3.332000000     0.326000000
H     6.420000000     2.407000000    -0.152000000
O     3.308000000     7.088000000    -0.262000000
H     2.944000000     7.038000000    -1.146000000
H     2.583000000     6.839000000     0.311000000
O     0.078000000     3.013000000     4.338000000
H    -0.648000000     2.550000000     4.756000000
H    -0.285000000     3.335000000     3.513000000
O     3.694000000     1.142000000    -2.863000000
H     3.093000000     1.853000000    -2.639000000
H     4.546000000     1.569000000    -2.954000000
O    -3.468000000    -2.148000000    -3.863000000
H    -3.735000000    -1.282000000    -4.171000000
H    -4.262000000    -2.523000000    -3.482000000
O     2.170000000     3.405000000    -2.028000000
H     2.139000000     3.403000000    -1.071000000
H     1.756000000     4.230000000    -2.280000000
O    -1.975000000     6.623000000     4.366000000
H    -2.051000000     6.006000000     3.638000000
H    -1.233000000     6.300000000     4.878000000
O    -1.260000000    -5.209000000     1.493000000
H    -0.468000000    -4.771000000     1.804000000
H    -1.965000000    -4.830000000     2.017000000
O    -4.817000000     2.433000000     2.355000000
H    -4.580000000     1.788000000     1.688000000
H    -5.500000000     2.963000000     1.944000000
O     4.491000000    -3.130000000    -0.852000000
H     5.072000000    -3.876000000    -0.702000000
H     3.618000000    -3.515000000    -0.917000000
O     0.604000000     5.448000000    -2.903000000
H     0.262000000     6.079000000    -2.269000000
H     1.359000000     5.888000000    -3.295000000
O    -1.992000000     4.681000000    -0.737000000
H    -1.211000000     4.640000000    -0.184000000
H    -1.978000000     3.862000000    -1.232000000
O     0.323000000    -2.168000000    -5.148000000
H     0.200000000    -1.491000000    -5.814000000
H     0.606000000    -1.690000000    -4.369000000
O    -0.223000000     5.345000000     5.937000000
H    -0.771000000     4.954000000     6.617000000
H     0.162000000     4.598000000     5.479000000
O     1.293000000     6.251000000     1.381000000
H     1.461000000     6.094000000     2.310000000
H     1.076000000     5.388000000     1.028000000
O    -4.921000000     1.140000000     4.893000000
H    -3.984000000     1.267000000     5.041000000
H    -5.019000000     1.159000000     3.941000000
O     2.510000000     3.713000000     5.719000000
H     2.585000000     4.492000000     5.167000000
H     1.761000000     3.236000000     5.360000000
O    -4.505000000    -2.127000000     1.070000000
H    -3.780000000    -2.750000000     1.039000000
H    -5.197000000    -2.588000000     1.543000000
O    -2.795000000    -6.501000000    -4.346000000
H    -2.536000000    -5.583000000    -4.426000000
H    -2.790000000    -6.670000000    -3.404000000
O     4.231000000    -0.749000000     0.418000000
H     4.387000000    -1.677000000     0.243000000
H     3.355000000    -0.722000000     0.803000000
O    -1.768000000    -4.082000000    -4.656000000
H    -1.111000000    -3.547000000    -5.101000000
H    -2.368000000    -3.448000000    -4.263000000
O    -4.384000000     5.715000000     0.979000000
H    -3.561000000     5.245000000     0.847000000
H    -5.063000000     5.068000000     0.784000000
O     2.282000000     1.107000000     3.857000000
H     1.588000000     1.765000000     3.822000000
H     1.845000000     0.313000000     4.165000000
O    -6.871000000    -1.812000000    -0.713000000
H    -6.085000000    -2.244000000    -0.380000000
H    -6.773000000    -1.836000000    -1.665000000
O     5.015000000     0.566000000     3.368000000
H     4.994000000     0.742000000     2.427000000
H     4.094000000     0.546000000     3.628000000
O     3.894000000     2.835000000     1.509000000
H     3.132000000     3.301000000     1.163000000
H     3.524000000     2.171000000     2.091000000
O    -2.132000000     1.896000000    -1.353000000
H    -1.421000000     1.305000000    -1.104000000
H    -2.888000000     1.584000000    -0.856000000
O     6.438000000    -1.909000000    -3.447000000
H     6.626000000    -1.345000000    -4.197000000
H     5.486000000    -2.004000000    -3.451000000
O     1.932000000     5.992000000     4.030000000
H     2.596000000     6.548000000     4.437000000
H     1.220000000     5.962000000     4.670000000
O     2.302000000    -4.652000000    -1.463000000
H     1.949000000    -5.176000000    -0.743000000
H     1.767000000    -4.892000000    -2.219000000
O     2.774000000    -3.485000000    -5.571000000
H     1.943000000    -3.192000000    -5.198000000
H     3.161000000    -4.037000000    -4.891000000
O    -0.049000000     7.166000000    -0.984000000
H     0.544000000     7.906000000    -0.855000000
H    -0.116000000     6.760000000    -0.120000000
O    -1.745000000     1.363000000     5.502000000
H    -1.734000000     0.499000000     5.091000000
H    -1.492000000     1.200000000     6.410000000
O     3.719000000    -1.648000000    -3.498000000
H     3.659000000    -0.708000000    -3.329000000
H     3.793000000    -2.043000000    -2.629000000
O     0.683000000    -5.712000000    -3.359000000
H     0.746000000    -6.601000000    -3.708000000
H     0.133000000    -5.245000000    -3.989000000
O    -2.975000000    -3.826000000     3.068000000
H    -2.681000000    -4.329000000     3.827000000
H    -3.505000000    -3.120000000     3.439000000
O     0.790000000    -1.274000000     4.132000000
H    -0.140000000    -1.066000000     4.042000000
H     1.033000000    -1.656000000     3.289000000
O    -1.462000000     1.304000000    -4.795000000
H    -1.076000000     2.176000000    -4.713000000
H    -0.761000000     0.706000000    -4.537000000
O    -1.886000000    -6.422000000    -1.655000000
H    -2.684000000    -6.167000000    -1.192000000
H    -1.234000000    -5.776000000    -1.383000000
O     6.688000000    -0.178000000    -0.791000000
H     6.556000000    -0.488000000    -1.687000000
H     5.909000000    -0.472000000    -0.319000000
O     1.234000000    -5.063000000     2.467000000
H     1.277000000    -5.486000000     3.325000000
H     1.392000000    -5.771000000     1.843000000
O     1.176000000     0.263000000    -4.463000000
H     1.449000000     0.877000000    -5.145000000
H     1.425000000     0.690000000    -3.643000000
O     2.183000000    -2.561000000     1.436000000
H     1.400000000    -2.293000000     0.955000000
H     1.865000000    -3.200000000     2.074000000
