144
-2814.00938
O     5.151000000    -3.571000000     0.943000000
H     5.673000000    -2.791000000     1.134000000
H     5.671000000    -4.055000000     0.302000000
O    -6.379000000     3.233000000    -3.609000000
H    -6.424000000     3.123000000    -2.659000000
H    -6.452000000     2.344000000    -3.957000000
O     1.447000000    -4.202000000    -1.830000000
H     1.879000000    -4.254000000    -0.978000000
H     0.643000000    -4.712000000    -1.722000000
O    -6.047000000    -0.342000000     2.098000000
H    -5.296000000    -0.721000000     1.642000000
H    -5.680000000     0.023000000     2.903000000
O    -7.598000000     1.881000000     2.290000000
H    -7.372000000     2.349000000     3.093000000
H    -7.011000000     1.125000000     2.279000000
O    -1.366000000     2.901000000     5.372000000
H    -1.277000000     2.532000000     6.251000000
H    -1.354000000     2.140000000     4.791000000
O    -3.639000000     2.112000000     3.092000000
H    -2.962000000     1.498000000     3.377000000
H    -3.222000000     2.972000000     3.150000000
O    -2.191000000     4.088000000     1.260000000
H    -1.263000000     3.856000000     1.231000000
H    -2.378000000     4.437000000     0.388000000
O    -3.412000000    -2.152000000    -5.700000000
H    -3.742000000    -3.042000000    -5.578000000
H    -2.487000000    -2.205000000    -5.461000000
O    -1.837000000     3.216000000    -3.979000000
H    -1.715000000     2.369000000    -4.409000000
H    -1.116000000     3.755000000    -4.305000000
O     3.365000000     4.248000000     1.477000000
H     3.535000000     3.770000000     2.289000000
H     3.935000000     3.833000000     0.830000000
O    -2.528000000    -4.016000000    -0.007000000
H    -3.184000000    -3.961000000    -0.701000000
H    -1.907000000    -4.676000000    -0.315000000
O     5.397000000     0.409000000    -3.266000000
H     4.471000000     0.627000000    -3.374000000
H     5.393000000    -0.464000000    -2.873000000
O     4.937000000     2.417000000     0.269000000
H     5.850000000     2.592000000     0.496000000
H     4.808000000     1.495000000     0.491000000
O     0.569000000     0.954000000    -2.797000000
H     0.908000000     1.784000000    -2.461000000
H     0.359000000     0.446000000    -2.013000000
O    -6.099000000     1.716000000     4.503000000
H    -6.040000000     2.298000000     5.261000000
H    -5.366000000     1.976000000     3.945000000
O     8.698000000    -0.958000000    -0.853000000
H     7.773000000    -0.837000000    -0.637000000
H     8.981000000    -0.104000000    -1.179000000
O     4.238000000    -3.447000000     4.390000000
H     4.919000000    -3.926000000     3.918000000
H     3.797000000    -2.930000000     3.716000000
O     3.217000000     3.117000000     4.059000000
H     2.664000000     2.581000000     4.627000000
H     3.105000000     4.009000000     4.388000000
O     2.080000000     1.281000000     5.738000000
H     2.137000000     0.668000000     5.005000000
H     1.449000000     0.879000000     6.336000000
O     0.787000000     6.182000000     2.920000000
H     0.829000000     6.956000000     2.359000000
H     0.965000000     5.449000000     2.331000000
O     6.267000000    -0.816000000     0.270000000
H     5.332000000    -0.778000000     0.068000000
H     6.325000000    -0.545000000     1.187000000
O     5.554000000    -4.405000000    -1.760000000
H     4.877000000    -5.078000000    -1.686000000
H     6.124000000    -4.715000000    -2.464000000
O     2.541000000    -3.838000000     0.833000000
H     3.476000000    -3.931000000     1.013000000
H     2.491000000    -3.146000000     0.174000000
O     1.919000000    -2.225000000    -3.787000000
H     1.757000000    -2.900000000    -3.128000000
H     2.802000000    -1.909000000    -3.595000000
O     5.910000000     0.354000000     2.857000000
H     5.092000000     0.281000000     2.366000000
H     5.636000000     0.547000000     3.753000000
O    -2.639000000     4.775000000    -1.443000000
H    -2.763000000     4.219000000    -2.212000000
H    -1.771000000     5.160000000    -1.564000000
O     8.436000000     1.070000000     3.307000000
H     8.944000000     0.416000000     2.826000000
H     7.524000000     0.815000000     3.166000000
O    -3.336000000     5.815000000     3.502000000
H    -3.003000000     5.409000000     2.702000000
H    -2.559000000     5.951000000     4.044000000
O     2.087000000    -0.865000000     3.775000000
H     1.579000000    -1.530000000     3.310000000
H     2.655000000    -0.486000000     3.104000000
O    -4.076000000     0.224000000    -4.305000000
H    -3.873000000    -0.704000000    -4.429000000
H    -3.385000000     0.686000000    -4.779000000
O     2.930000000     0.619000000    -4.428000000
H     2.236000000     0.297000000    -3.853000000
H     2.484000000     1.214000000    -5.031000000
O    -4.696000000    -3.274000000    -1.861000000
H    -4.969000000    -3.231000000    -2.778000000
H    -5.516000000    -3.299000000    -1.368000000
O     0.752000000     4.412000000     0.656000000
H     0.798000000     3.974000000    -0.194000000
H     1.632000000     4.322000000     1.020000000
O    -0.177000000    -1.030000000     6.190000000
H    -0.248000000    -0.451000000     5.431000000
H    -0.620000000    -0.557000000     6.895000000
O    -1.837000000     0.232000000     4.243000000
H    -1.470000000    -0.344000000     3.572000000
H    -2.302000000    -0.359000000     4.837000000
O    -0.663000000    -4.426000000    -6.047000000
H    -0.768000000    -3.695000000    -5.438000000
H     0.284000000    -4.521000000    -6.146000000
O    -0.998000000    -5.842000000    -1.307000000
H    -1.470000000    -6.145000000    -2.083000000
H    -0.818000000    -6.641000000    -0.810000000
O    -1.057000000    -1.978000000     2.657000000
H    -0.726000000    -2.809000000     2.998000000
H    -0.713000000    -1.931000000     1.766000000
O    -0.896000000    -1.828000000    -4.786000000
H    -0.587000000    -1.275000000    -5.504000000
H    -0.329000000    -1.602000000    -4.049000000
O    -4.045000000    -2.272000000     1.655000000
H    -3.717000000    -2.955000000     1.070000000
H    -3.375000000    -2.199000000     2.335000000
O     4.320000000    -2.178000000    -2.534000000
H     5.091000000    -2.692000000    -2.295000000
H     3.910000000    -1.958000000    -1.698000000
O     0.678000000    -4.164000000     2.872000000
H     0.635000000    -5.118000000     2.928000000
H     1.189000000    -3.993000000     2.081000000
O    -0.267000000     6.377000000    -0.860000000
H    -0.405000000     7.135000000    -0.291000000
H     0.165000000     5.733000000    -0.300000000
O     2.404000000     3.146000000    -1.133000000
H     2.829000000     3.197000000    -1.989000000
H     3.064000000     2.754000000    -0.561000000
O     5.285000000     0.321000000     5.508000000
H     5.112000000     1.146000000     5.963000000
H     4.858000000    -0.344000000     6.049000000
O    -6.707000000     2.941000000    -0.740000000
H    -6.069000000     2.478000000    -0.198000000
H    -6.519000000     3.868000000    -0.593000000
O     5.220000000    -2.260000000    -5.066000000
H     4.440000000    -2.487000000    -5.572000000
H     4.926000000    -2.269000000    -4.155000000
