144
-2832.98240
O     0.903000000     1.690000000    -3.158000000
H     1.797000000     1.518000000    -3.456000000
H     0.822000000     1.190000000    -2.345000000
O     1.107000000    -4.171000000     1.651000000
H     1.694000000    -3.644000000     1.110000000
H     0.511000000    -4.584000000     1.025000000
O    -4.426000000    -2.841000000    -0.385000000
H    -5.070000000    -2.211000000    -0.061000000
H    -3.745000000    -2.854000000     0.287000000
O    -6.799000000     1.825000000     1.443000000
H    -6.900000000     0.949000000     1.815000000
H    -6.300000000     1.688000000     0.638000000
O    -2.050000000    -0.582000000     3.690000000
H    -1.789000000     0.339000000     3.692000000
H    -1.266000000    -1.053000000     3.973000000
O    -6.537000000    -0.894000000     1.729000000
H    -5.806000000    -0.818000000     2.342000000
H    -7.279000000    -1.162000000     2.272000000
O    -5.094000000     3.989000000     2.618000000
H    -4.841000000     3.213000000     3.118000000
H    -5.480000000     3.640000000     1.814000000
O    -0.915000000    -3.400000000    -3.173000000
H    -1.862000000    -3.266000000    -3.133000000
H    -0.777000000    -3.891000000    -3.984000000
O    -1.355000000     1.528000000    -4.985000000
H    -1.279000000     0.577000000    -5.071000000
H    -0.471000000     1.819000000    -4.763000000
O     1.528000000     3.502000000     3.739000000
H     1.219000000     2.907000000     4.422000000
H     2.400000000     3.769000000     4.031000000
O     4.119000000     3.890000000     4.392000000
H     4.318000000     3.187000000     3.773000000
H     4.772000000     3.790000000     5.085000000
O     4.650000000    -4.525000000    -3.366000000
H     5.432000000    -4.013000000    -3.161000000
H     4.102000000    -4.449000000    -2.585000000
O     4.794000000     1.884000000     2.842000000
H     4.587000000     1.516000000     1.983000000
H     5.436000000     1.278000000     3.213000000
O     2.167000000     4.392000000     1.253000000
H     2.006000000     4.347000000     2.196000000
H     2.841000000     5.065000000     1.157000000
O     7.194000000    -0.303000000     3.242000000
H     6.613000000    -0.941000000     3.657000000
H     7.166000000    -0.524000000     2.311000000
O     5.672000000     3.812000000    -0.570000000
H     5.130000000     3.075000000    -0.289000000
H     5.048000000     4.446000000    -0.924000000
O     0.989000000     4.774000000    -2.318000000
H     1.718000000     4.160000000    -2.409000000
H     0.227000000     4.289000000    -2.634000000
O     2.976000000    -4.022000000     4.173000000
H     2.449000000    -4.535000000     3.560000000
H     2.428000000    -3.943000000     4.953000000
O     0.293000000     2.450000000     6.351000000
H     0.074000000     3.343000000     6.084000000
H     0.852000000     2.561000000     7.120000000
O     0.419000000    -0.110000000     5.252000000
H     1.350000000    -0.280000000     5.400000000
H     0.313000000     0.822000000     5.443000000
O     5.838000000    -2.973000000     3.777000000
H     5.036000000    -3.491000000     3.844000000
H     5.863000000    -2.687000000     2.864000000
O    -5.677000000     3.443000000    -4.891000000
H    -6.337000000     2.970000000    -4.385000000
H    -4.842000000     3.090000000    -4.585000000
O    -3.811000000     1.655000000    -3.778000000
H    -3.067000000     1.781000000    -4.367000000
H    -4.054000000     0.736000000    -3.891000000
O     5.758000000    -1.794000000     1.212000000
H     4.812000000    -1.655000000     1.175000000
H     5.966000000    -2.242000000     0.392000000
O     4.171000000    -5.975000000     0.778000000
H     3.770000000    -6.843000000     0.815000000
H     5.106000000    -6.139000000     0.900000000
O     7.278000000     0.737000000    -1.028000000
H     8.042000000     0.399000000    -0.562000000
H     6.808000000     1.255000000    -0.375000000
O     3.464000000     0.612000000    -2.421000000
H     3.964000000    -0.140000000    -2.103000000
H     3.662000000     1.312000000    -1.799000000
O     1.841000000    -1.771000000    -5.992000000
H     1.881000000    -0.951000000    -6.484000000
H     2.592000000    -1.731000000    -5.399000000
O    -0.772000000    -1.191000000    -4.945000000
H     0.100000000    -1.359000000    -5.302000000
H    -0.758000000    -1.597000000    -4.079000000
O     3.020000000    -1.015000000     4.670000000
H     3.216000000    -0.624000000     3.819000000
H     2.860000000    -1.939000000     4.480000000
O    -2.224000000     2.684000000     4.042000000
H    -1.553000000     3.323000000     4.279000000
H    -3.053000000     3.135000000     4.201000000
O    -2.351000000     4.027000000    -2.578000000
H    -2.815000000     3.204000000    -2.732000000
H    -2.598000000     4.279000000    -1.689000000
O    -4.677000000    -0.833000000     3.468000000
H    -5.065000000    -0.506000000     4.279000000
H    -3.744000000    -0.636000000     3.551000000
O     4.324000000    -2.335000000    -4.802000000
H     4.529000000    -3.207000000    -4.466000000
H     4.757000000    -1.736000000    -4.194000000
O    -0.285000000    -2.988000000     3.609000000
H     0.395000000    -2.421000000     3.971000000
H     0.178000000    -3.556000000     2.994000000
O    -3.624000000    -0.643000000    -5.091000000
H    -3.939000000    -1.310000000    -4.482000000
H    -2.749000000    -0.940000000    -5.340000000
O     3.826000000     1.777000000     0.216000000
H     3.777000000     0.942000000     0.682000000
H     3.127000000     2.306000000     0.599000000
O    -3.925000000    -2.647000000    -3.158000000
H    -4.441000000    -3.281000000    -3.655000000
H    -4.405000000    -2.539000000    -2.336000000
O    -0.851000000     4.060000000     1.217000000
H    -0.875000000     3.472000000     1.972000000
H     0.025000000     3.941000000     0.850000000
O    -2.343000000     3.904000000    -6.073000000
H    -2.850000000     3.625000000    -6.837000000
H    -2.259000000     3.113000000    -5.540000000
O    -0.924000000    -1.635000000     7.075000000
H    -1.508000000    -2.136000000     6.506000000
H    -0.578000000    -0.942000000     6.512000000
O    -2.140000000    -2.372000000     1.291000000
H    -1.367000000    -1.952000000     0.914000000
H    -2.057000000    -2.226000000     2.233000000
O     4.800000000     0.466000000     6.411000000
H     5.481000000    -0.190000000     6.561000000
H     4.081000000    -0.023000000     6.009000000
O     3.394000000    -4.132000000    -1.024000000
H     3.679000000    -4.802000000    -0.403000000
H     3.416000000    -3.316000000    -0.524000000
O     0.688000000    -4.710000000    -1.186000000
H     0.317000000    -4.144000000    -1.863000000
H     1.626000000    -4.523000000    -1.205000000
O     6.931000000    -4.232000000    -0.628000000
H     7.209000000    -5.048000000    -1.045000000
H     6.191000000    -4.485000000    -0.077000000
O    -2.934000000     5.282000000    -0.174000000
H    -3.382000000     5.998000000     0.277000000
H    -2.320000000     4.937000000     0.473000000
O    -5.870000000     1.786000000    -1.093000000
H    -5.183000000     1.672000000    -1.750000000
H    -6.681000000     1.829000000    -1.600000000
