144
-2824.50382
O     2.290000000    -4.517000000     0.954000000
H     2.563000000    -3.601000000     1.001000000
H     2.935000000    -4.930000000     0.380000000
O    -5.258000000     2.852000000    -3.704000000
H    -5.884000000     2.865000000    -2.981000000
H    -5.446000000     2.037000000    -4.170000000
O     1.251000000    -3.369000000    -3.491000000
H     0.897000000    -3.524000000    -2.615000000
H     2.098000000    -3.817000000    -3.489000000
O    -5.374000000     0.369000000     0.751000000
H    -5.281000000    -0.231000000     0.010000000
H    -4.489000000     0.447000000     1.107000000
O    -7.407000000     2.284000000     0.447000000
H    -6.963000000     3.048000000     0.816000000
H    -6.832000000     1.548000000     0.658000000
O    -1.757000000    -0.029000000     5.239000000
H    -2.668000000     0.016000000     5.528000000
H    -1.542000000     0.869000000     4.986000000
O    -6.337000000    -1.464000000     3.104000000
H    -5.783000000    -1.257000000     3.857000000
H    -5.983000000    -0.930000000     2.393000000
O     5.450000000     2.357000000     4.021000000
H     4.769000000     2.520000000     4.673000000
H     5.161000000     1.567000000     3.564000000
O    -2.578000000     3.834000000     1.008000000
H    -3.443000000     3.973000000     1.393000000
H    -2.665000000     4.143000000     0.106000000
O    -1.428000000    -2.461000000    -3.525000000
H    -2.007000000    -2.989000000    -4.075000000
H    -0.598000000    -2.937000000    -3.525000000
O    -0.626000000     1.928000000    -3.858000000
H    -0.634000000     0.972000000    -3.906000000
H     0.171000000     2.137000000    -3.370000000
O     1.166000000     3.482000000     3.148000000
H     1.358000000     3.526000000     4.084000000
H     1.946000000     3.084000000     2.762000000
O     4.511000000    -1.444000000    -3.781000000
H     3.883000000    -0.723000000    -3.822000000
H     4.310000000    -1.890000000    -2.958000000
O     3.152000000     2.158000000     2.225000000
H     4.022000000     2.279000000     1.844000000
H     3.024000000     1.209000000     2.232000000
O     1.579000000     2.415000000    -2.516000000
H     1.863000000     3.243000000    -2.128000000
H     1.383000000     1.854000000    -1.765000000
O     5.387000000     1.143000000     0.410000000
H     5.392000000     0.669000000    -0.422000000
H     5.511000000     0.463000000     1.072000000
O     2.152000000    -5.156000000     3.555000000
H     2.339000000    -5.046000000     2.623000000
H     1.349000000    -4.655000000     3.699000000
O     0.220000000     0.658000000     7.047000000
H     0.859000000     0.550000000     6.343000000
H    -0.561000000     0.201000000     6.733000000
O     4.858000000    -2.912000000     4.499000000
H     4.407000000    -2.804000000     5.336000000
H     4.166000000    -3.153000000     3.883000000
O    -5.683000000     5.653000000    -0.918000000
H    -5.604000000     5.579000000     0.033000000
H    -4.924000000     5.180000000    -1.259000000
O    -2.782000000     3.735000000    -4.351000000
H    -2.194000000     2.980000000    -4.369000000
H    -3.629000000     3.372000000    -4.090000000
O     5.879000000     0.130000000    -2.069000000
H     5.199000000    -0.187000000    -2.663000000
H     6.215000000     0.921000000    -2.490000000
O     5.900000000    -3.181000000     1.533000000
H     4.980000000    -2.978000000     1.703000000
H     6.197000000    -2.479000000     0.954000000
O     3.433000000    -5.884000000    -1.363000000
H     2.689000000    -6.485000000    -1.398000000
H     3.940000000    -6.084000000    -2.150000000
O     0.861000000    -2.343000000     4.557000000
H     0.369000000    -2.701000000     5.296000000
H     0.365000000    -2.616000000     3.785000000
O     0.247000000    -4.057000000    -0.951000000
H    -0.290000000    -4.847000000    -1.017000000
H     0.889000000    -4.260000000    -0.271000000
O    -0.350000000     3.474000000    -6.322000000
H    -0.598000000     4.353000000    -6.038000000
H    -0.674000000     2.898000000    -5.630000000
O    -0.578000000    -0.561000000    -7.333000000
H    -0.085000000    -0.462000000    -8.147000000
H    -0.008000000    -0.187000000    -6.660000000
O     0.217000000    -0.640000000    -4.558000000
H    -0.492000000    -1.120000000    -4.130000000
H     1.008000000    -1.131000000    -4.334000000
O     5.438000000    -0.480000000     2.981000000
H     4.486000000    -0.482000000     2.879000000
H     5.608000000    -1.135000000     3.657000000
O     7.354000000    -1.527000000    -0.234000000
H     7.917000000    -0.985000000     0.319000000
H     7.152000000    -0.972000000    -0.987000000
O    -1.078000000     2.512000000     4.414000000
H    -0.600000000     2.869000000     3.666000000
H    -0.510000000     2.683000000     5.166000000
O    -3.350000000     4.521000000    -1.658000000
H    -3.255000000     3.630000000    -1.993000000
H    -3.039000000     5.080000000    -2.370000000
O    -3.771000000     2.352000000     3.678000000
H    -3.495000000     1.955000000     2.851000000
H    -2.952000000     2.571000000     4.123000000
O     2.065000000     0.076000000     5.048000000
H     1.592000000    -0.744000000     5.188000000
H     2.336000000     0.042000000     4.130000000
O    -5.223000000     0.122000000    -4.865000000
H    -5.155000000    -0.450000000    -4.101000000
H    -4.528000000    -0.178000000    -5.451000000
O     3.180000000     0.724000000    -3.905000000
H     2.401000000     1.086000000    -3.483000000
H     3.196000000     1.133000000    -4.770000000
O    -3.996000000    -3.001000000    -1.293000000
H    -3.531000000    -2.588000000    -2.020000000
H    -4.017000000    -3.931000000    -1.520000000
O     0.086000000     4.608000000     0.963000000
H    -0.777000000     4.221000000     0.814000000
H     0.534000000     3.983000000     1.533000000
O    -3.323000000    -0.764000000    -6.332000000
H    -2.374000000    -0.737000000    -6.455000000
H    -3.669000000    -0.179000000    -7.007000000
O    -2.759000000    -2.676000000     4.706000000
H    -2.084000000    -2.000000000     4.775000000
H    -3.515000000    -2.306000000     5.163000000
O    -2.960000000    -1.293000000     2.405000000
H    -2.109000000    -1.501000000     2.018000000
H    -3.088000000    -1.963000000     3.076000000
O    -5.703000000    -1.310000000    -2.620000000
H    -6.624000000    -1.051000000    -2.648000000
H    -5.694000000    -2.108000000    -2.092000000
O     3.894000000    -2.795000000    -1.510000000
H     3.695000000    -3.679000000    -1.203000000
H     3.817000000    -2.247000000    -0.728000000
O    -0.350000000    -3.286000000     2.193000000
H    -0.733000000    -4.049000000     2.626000000
H    -0.652000000    -3.349000000     1.287000000
O    -0.695000000     6.276000000    -1.200000000
H    -0.716000000     6.988000000    -0.561000000
H    -0.314000000     5.538000000    -0.723000000
O     4.827000000     0.065000000     6.022000000
H     5.006000000     0.967000000     6.289000000
H     3.881000000     0.041000000     5.881000000
O     3.768000000    -4.381000000    -4.025000000
H     4.068000000    -3.927000000    -3.238000000
H     4.134000000    -5.262000000    -3.948000000
