144
-2822.80845
O     3.573000000     2.566000000     1.825000000
H     3.496000000     2.397000000     2.763000000
H     4.515000000     2.649000000     1.673000000
O    -5.002000000    -1.682000000     0.515000000
H    -4.368000000    -1.781000000    -0.194000000
H    -5.719000000    -2.271000000     0.279000000
O    -1.945000000    -3.512000000    -3.337000000
H    -1.516000000    -4.246000000    -2.898000000
H    -1.228000000    -2.925000000    -3.577000000
O     4.522000000    -2.746000000    -5.343000000
H     3.743000000    -2.569000000    -4.815000000
H     4.703000000    -1.919000000    -5.788000000
O    -0.145000000    -2.387000000     5.424000000
H     0.092000000    -3.022000000     6.100000000
H    -1.061000000    -2.581000000     5.224000000
O    -3.389000000    -3.554000000    -0.618000000
H    -3.548000000    -3.337000000    -1.537000000
H    -3.794000000    -4.413000000    -0.502000000
O     2.381000000    -2.214000000    -3.612000000
H     2.189000000    -2.342000000    -2.683000000
H     1.530000000    -2.033000000    -4.010000000
O    -3.799000000     0.820000000    -5.505000000
H    -3.360000000     0.151000000    -6.030000000
H    -3.105000000     1.437000000    -5.274000000
O    -3.321000000    -0.529000000     7.846000000
H    -4.084000000     0.049000000     7.841000000
H    -3.472000000    -1.131000000     7.117000000
O     1.503000000     4.013000000    -2.314000000
H     1.736000000     4.310000000    -1.435000000
H     1.639000000     3.066000000    -2.291000000
O     2.759000000     4.486000000    -0.025000000
H     3.500000000     5.070000000     0.135000000
H     2.982000000     3.682000000     0.444000000
O     2.355000000     4.851000000     4.462000000
H     1.618000000     4.240000000     4.463000000
H     2.121000000     5.509000000     5.117000000
O    -0.188000000     3.084000000     4.372000000
H    -0.412000000     3.498000000     3.538000000
H    -0.640000000     2.240000000     4.349000000
O    -4.502000000    -3.613000000     2.808000000
H    -4.750000000    -3.049000000     2.075000000
H    -5.034000000    -4.400000000     2.694000000
O    -6.270000000     1.059000000     1.532000000
H    -6.803000000     1.419000000     0.823000000
H    -5.797000000     0.330000000     1.129000000
O     6.523000000     0.469000000    -2.452000000
H     6.006000000     1.253000000    -2.634000000
H     5.873000000    -0.209000000    -2.266000000
O     5.245000000    -1.588000000     3.968000000
H     4.306000000    -1.676000000     4.129000000
H     5.343000000    -1.742000000     3.029000000
O     0.731000000     6.365000000     0.837000000
H     1.372000000     6.858000000     1.349000000
H     1.189000000     5.562000000     0.588000000
O     1.841000000     1.017000000    -5.701000000
H     1.410000000     0.959000000    -4.848000000
H     2.764000000     0.848000000    -5.514000000
O     5.206000000     4.632000000    -2.282000000
H     4.733000000     3.821000000    -2.471000000
H     6.070000000     4.342000000    -1.988000000
O     1.145000000     2.001000000    -8.215000000
H     1.458000000     1.699000000    -7.362000000
H     1.611000000     1.455000000    -8.848000000
O    -1.539000000     2.262000000    -5.087000000
H    -0.878000000     2.826000000    -5.490000000
H    -1.045000000     1.509000000    -4.763000000
O    -1.685000000     2.609000000     0.221000000
H    -1.549000000     1.746000000    -0.171000000
H    -2.292000000     3.049000000    -0.374000000
O     2.235000000    -5.933000000     2.688000000
H     2.797000000    -6.278000000     3.382000000
H     1.346000000    -6.020000000     3.034000000
O    -4.736000000    -2.968000000    -3.425000000
H    -3.844000000    -2.915000000    -3.768000000
H    -5.064000000    -2.069000000    -3.470000000
O    -2.309000000     3.541000000    -2.355000000
H    -2.607000000     4.405000000    -2.639000000
H    -2.306000000     3.013000000    -3.154000000
O     2.277000000     2.591000000     7.399000000
H     1.941000000     1.767000000     7.046000000
H     1.535000000     3.194000000     7.347000000
O     3.904000000    -3.246000000     0.397000000
H     3.415000000    -3.502000000     1.180000000
H     3.382000000    -2.544000000     0.008000000
O     1.560000000    -2.512000000    -0.835000000
H     1.328000000    -3.052000000    -0.079000000
H     0.971000000    -1.760000000    -0.783000000
O     5.761000000    -1.356000000     0.953000000
H     6.202000000    -0.945000000     0.209000000
H     5.273000000    -2.085000000     0.570000000
O     0.937000000     3.716000000    -5.009000000
H     1.511000000     3.010000000    -5.306000000
H     1.157000000     3.831000000    -4.085000000
O    -4.590000000    -0.255000000     3.386000000
H    -5.441000000     0.059000000     3.079000000
H    -4.125000000    -0.506000000     2.588000000
O     5.108000000     3.283000000    -5.615000000
H     5.370000000     4.092000000    -5.176000000
H     4.245000000     3.478000000    -5.983000000
O     4.987000000    -1.744000000    -2.205000000
H     4.192000000    -1.805000000    -2.734000000
H     5.239000000    -2.654000000    -2.047000000
O    -2.442000000     0.849000000     5.177000000
H    -3.153000000     1.393000000     5.516000000
H    -2.870000000     0.253000000     4.562000000
O    -1.723000000     4.149000000     2.363000000
H    -2.605000000     4.220000000     2.729000000
H    -1.820000000     3.550000000     1.622000000
O    -2.578000000    -3.820000000     5.011000000
H    -3.102000000    -3.725000000     5.806000000
H    -3.136000000    -3.476000000     4.314000000
O     3.395000000    -1.497000000     6.921000000
H     2.536000000    -1.337000000     7.313000000
H     3.201000000    -1.935000000     6.092000000
O     2.579000000    -2.256000000     4.236000000
H     2.392000000    -2.980000000     3.639000000
H     1.721000000    -1.989000000     4.565000000
O    -0.226000000    -1.945000000    -4.483000000
H     0.240000000    -1.849000000    -5.313000000
H    -0.472000000    -1.052000000    -4.242000000
O    -5.445000000     0.395000000    -3.170000000
H    -5.114000000     1.063000000    -2.570000000
H    -4.930000000     0.514000000    -3.968000000
O    -0.598000000    -5.815000000     3.705000000
H    -0.878000000    -5.186000000     3.040000000
H    -1.065000000    -5.550000000     4.497000000
O     1.316000000    -3.634000000     1.696000000
H     1.626000000    -4.448000000     2.092000000
H     0.363000000    -3.715000000     1.696000000
O    -0.548000000     0.910000000     7.439000000
H    -0.816000000     1.827000000     7.389000000
H    -1.309000000     0.421000000     7.126000000
O    -1.561000000    -3.663000000     1.638000000
H    -2.216000000    -3.248000000     2.200000000
H    -1.830000000    -3.435000000     0.748000000
O    -4.473000000     2.160000000    -1.495000000
H    -4.962000000     2.643000000    -0.829000000
H    -3.761000000     2.750000000    -1.744000000
O     5.433000000     1.287000000     4.252000000
H     6.249000000     1.299000000     3.752000000
H     5.298000000     0.364000000     4.468000000
O     4.310000000     1.764000000    -3.200000000
H     3.359000000     1.651000000    -3.206000000
H     4.542000000     1.894000000    -4.119000000
