144
-2789.80386
O     1.740000000     4.573000000    -4.249000000
H     2.211000000     4.998000000    -3.533000000
H     1.182000000     3.925000000    -3.818000000
O     7.292000000     1.704000000    -3.196000000
H     6.711000000     2.305000000    -2.728000000
H     6.790000000     1.437000000    -3.966000000
O    -2.935000000     0.669000000    -5.290000000
H    -2.686000000     0.630000000    -4.366000000
H    -2.117000000     0.525000000    -5.765000000
O     4.445000000     3.744000000     0.169000000
H     3.561000000     4.044000000    -0.042000000
H     4.500000000     3.809000000     1.122000000
O    -0.904000000    -5.204000000     5.434000000
H    -1.229000000    -4.329000000     5.219000000
H     0.002000000    -5.062000000     5.709000000
O     0.323000000     5.398000000    -6.571000000
H     0.677000000     5.072000000    -5.743000000
H     0.593000000     6.316000000    -6.601000000
O    -4.145000000     3.883000000    -2.991000000
H    -3.344000000     4.173000000    -2.556000000
H    -4.852000000     4.203000000    -2.430000000
O     3.013000000     5.990000000    -2.349000000
H     2.654000000     6.784000000    -2.744000000
H     3.952000000     6.160000000    -2.278000000
O    -1.205000000    -2.741000000    -2.748000000
H    -0.270000000    -2.922000000    -2.654000000
H    -1.262000000    -2.166000000    -3.511000000
O    -1.976000000     0.182000000    -2.915000000
H    -1.205000000     0.508000000    -2.450000000
H    -2.322000000    -0.508000000    -2.350000000
O    -1.691000000     5.302000000     0.701000000
H    -1.610000000     5.000000000    -0.204000000
H    -2.598000000     5.108000000     0.938000000
O     1.564000000    -3.486000000    -2.237000000
H     2.238000000    -3.559000000    -2.912000000
H     1.998000000    -3.767000000    -1.432000000
O     1.038000000     4.713000000     2.301000000
H     0.330000000     5.314000000     2.531000000
H     0.985000000     4.633000000     1.348000000
O     1.828000000    -5.868000000     3.305000000
H     1.304000000    -5.233000000     2.817000000
H     2.097000000    -5.400000000     4.095000000
O    -3.621000000     2.127000000     4.992000000
H    -3.784000000     2.807000000     5.645000000
H    -4.396000000     2.142000000     4.431000000
O    -4.140000000    -2.309000000    -3.625000000
H    -3.891000000    -2.172000000    -4.539000000
H    -3.333000000    -2.158000000    -3.132000000
O     6.015000000     1.374000000    -5.618000000
H     6.201000000     1.837000000    -6.434000000
H     5.190000000     1.751000000    -5.311000000
O    -4.178000000     3.846000000     1.429000000
H    -4.137000000     2.895000000     1.530000000
H    -5.098000000     4.026000000     1.233000000
O    -4.832000000     1.126000000    -2.729000000
H    -4.255000000     1.889000000    -2.699000000
H    -4.255000000     0.383000000    -2.547000000
O    -5.074000000    -0.459000000     3.095000000
H    -5.493000000     0.127000000     3.726000000
H    -4.661000000     0.127000000     2.461000000
O    -5.538000000    -2.756000000     2.006000000
H    -5.464000000    -1.910000000     2.448000000
H    -6.139000000    -3.261000000     2.554000000
O    -1.000000000    -6.933000000     1.369000000
H    -1.818000000    -6.543000000     1.678000000
H    -0.372000000    -6.211000000     1.377000000
O     3.553000000    -1.104000000    -5.691000000
H     2.896000000    -0.796000000    -5.067000000
H     3.217000000    -0.834000000    -6.546000000
O     0.582000000    -4.683000000     1.149000000
H     0.225000000    -3.967000000     0.623000000
H     1.527000000    -4.639000000     1.002000000
O    -3.348000000    -2.644000000     4.301000000
H    -3.905000000    -2.017000000     3.839000000
H    -2.660000000    -2.107000000     4.696000000
O    -5.439000000     1.158000000     0.740000000
H    -6.200000000     1.400000000     0.213000000
H    -5.142000000     0.329000000     0.364000000
O    -2.774000000    -4.800000000     1.774000000
H    -2.364000000    -4.826000000     2.639000000
H    -3.569000000    -4.283000000     1.902000000
O     2.743000000    -4.371000000     5.442000000
H     2.552000000    -3.436000000     5.368000000
H     3.086000000    -4.475000000     6.330000000
O     0.694000000    -0.301000000     4.616000000
H     0.633000000     0.463000000     4.043000000
H    -0.200000000    -0.438000000     4.929000000
O    -0.468000000    -2.665000000     6.386000000
H     0.481000000    -2.672000000     6.514000000
H    -0.805000000    -2.158000000     7.125000000
O    -4.827000000    -3.863000000     6.386000000
H    -5.349000000    -3.249000000     6.902000000
H    -4.511000000    -3.346000000     5.645000000
O     5.492000000     4.651000000    -5.382000000
H     5.010000000     3.961000000    -4.925000000
H     6.227000000     4.853000000    -4.803000000
O     3.330000000     0.318000000     1.522000000
H     2.820000000     0.917000000     2.068000000
H     2.762000000    -0.444000000     1.408000000
O    -1.637000000     4.623000000    -1.945000000
H    -1.760000000     5.359000000    -2.545000000
H    -0.858000000     4.174000000    -2.274000000
O    -4.100000000    -1.083000000    -0.525000000
H    -4.486000000    -1.625000000     0.163000000
H    -3.640000000    -1.704000000    -1.090000000
O     1.592000000     4.676000000    -0.341000000
H     1.187000000     4.159000000    -1.037000000
H     2.000000000     5.413000000    -0.795000000
O     4.402000000    -2.147000000    -1.460000000
H     4.762000000    -1.260000000    -1.466000000
H     4.611000000    -2.495000000    -2.327000000
O     1.573000000     1.835000000    -7.438000000
H     1.111000000     2.563000000    -7.853000000
H     2.368000000     2.228000000    -7.079000000
O    -4.577000000    -5.499000000    -2.116000000
H    -4.232000000    -4.808000000    -1.551000000
H    -3.878000000    -5.664000000    -2.749000000
O     5.247000000    -1.901000000     2.774000000
H     4.840000000    -1.768000000     1.917000000
H     5.805000000    -1.133000000     2.896000000
O     1.035000000     1.682000000     2.475000000
H     0.857000000     2.554000000     2.122000000
H     0.776000000     1.083000000     1.775000000
O    -2.126000000    -0.043000000     5.425000000
H    -1.750000000     0.169000000     6.279000000
H    -2.663000000     0.718000000     5.204000000
O     2.512000000    -1.641000000     5.916000000
H     3.277000000    -1.116000000     5.682000000
H     1.767000000    -1.140000000     5.585000000
O     4.492000000     0.785000000    -0.967000000
H     3.974000000     1.469000000    -1.391000000
H     4.093000000     0.683000000    -0.103000000
O    -2.988000000    -3.629000000    -0.738000000
H    -2.632000000    -3.872000000     0.116000000
H    -2.231000000    -3.313000000    -1.232000000
O     1.534000000    -0.077000000    -4.476000000
H     0.601000000    -0.226000000    -4.326000000
H     1.772000000     0.606000000    -3.849000000
O     2.959000000    -3.609000000     0.064000000
H     3.564000000    -4.344000000     0.169000000
H     3.426000000    -2.993000000    -0.501000000
O     3.727000000     2.706000000    -4.620000000
H     2.993000000     3.235000000    -4.934000000
H     3.384000000     2.253000000    -3.850000000
