144
-2796.06331
O     5.061000000    -4.357000000    -0.014000000
H     5.739000000    -4.164000000    -0.661000000
H     4.388000000    -3.693000000    -0.167000000
O    -4.194000000     2.153000000    -2.407000000
H    -3.562000000     2.761000000    -2.791000000
H    -3.780000000     1.858000000    -1.596000000
O    -5.551000000    -1.494000000    -1.774000000
H    -4.658000000    -1.771000000    -1.979000000
H    -5.947000000    -1.308000000    -2.625000000
O     0.692000000     4.838000000     2.237000000
H     0.842000000     4.387000000     1.407000000
H     0.555000000     5.753000000     1.991000000
O     1.280000000     7.494000000    -2.007000000
H     1.347000000     7.624000000    -2.953000000
H     1.305000000     8.379000000    -1.641000000
O    -4.166000000    -0.708000000     3.297000000
H    -4.882000000    -1.105000000     2.801000000
H    -4.485000000    -0.681000000     4.199000000
O    -3.319000000     5.246000000     2.439000000
H    -3.554000000     6.174000000     2.455000000
H    -3.152000000     5.057000000     1.516000000
O     4.200000000     4.706000000     0.523000000
H     4.752000000     4.534000000     1.286000000
H     3.568000000     3.987000000     0.518000000
O     3.439000000     6.199000000     3.862000000
H     2.729000000     6.689000000     4.276000000
H     3.154000000     5.286000000     3.901000000
O     4.312000000     7.596000000     1.308000000
H     4.182000000     6.737000000     0.907000000
H     4.034000000     7.480000000     2.217000000
O    -5.997000000    -3.290000000     0.229000000
H    -6.412000000    -2.930000000     1.013000000
H    -5.796000000    -2.524000000    -0.309000000
O     5.774000000     4.735000000     2.846000000
H     5.998000000     5.613000000     3.155000000
H     4.858000000     4.618000000     3.101000000
O     1.887000000     3.344000000    -2.911000000
H     1.720000000     3.195000000    -1.980000000
H     1.815000000     2.477000000    -3.309000000
O     1.718000000     0.899000000    -3.881000000
H     1.695000000     0.345000000    -3.102000000
H     1.672000000     0.285000000    -4.614000000
O     4.421000000     2.862000000    -3.623000000
H     4.520000000     2.534000000    -2.729000000
H     3.561000000     3.282000000    -3.630000000
O    -3.761000000     2.079000000     0.566000000
H    -3.026000000     1.701000000     1.049000000
H    -3.512000000     2.992000000     0.427000000
O    -0.935000000     2.028000000     2.945000000
H    -1.305000000     2.647000000     3.574000000
H    -0.407000000     2.568000000     2.358000000
O    -4.174000000    -5.161000000     1.663000000
H    -4.613000000    -5.380000000     2.485000000
H    -4.553000000    -4.321000000     1.406000000
O     2.882000000    -2.750000000     2.908000000
H     2.351000000    -2.019000000     3.226000000
H     2.248000000    -3.440000000     2.715000000
O    -6.232000000     2.849000000    -3.816000000
H    -5.406000000     2.591000000    -3.407000000
H    -6.901000000     2.362000000    -3.335000000
O    -1.364000000    -4.946000000    -3.598000000
H    -1.137000000    -5.471000000    -2.830000000
H    -0.925000000    -4.108000000    -3.453000000
O     0.723000000     4.536000000    -5.296000000
H     1.484000000     4.120000000    -5.703000000
H     0.785000000     4.296000000    -4.372000000
O    -0.356000000    -2.203000000    -3.814000000
H    -0.215000000    -1.774000000    -4.658000000
H     0.505000000    -2.198000000    -3.396000000
O    -0.488000000     5.735000000    -1.236000000
H     0.007000000     6.550000000    -1.316000000
H     0.180000000     5.061000000    -1.108000000
O     0.879000000    -4.939000000     2.589000000
H     0.974000000    -5.516000000     1.831000000
H     0.003000000    -5.128000000     2.925000000
O     5.566000000    -2.163000000     3.540000000
H     5.371000000    -1.298000000     3.899000000
H     4.744000000    -2.448000000     3.141000000
O     3.197000000     3.582000000     3.447000000
H     3.538000000     2.822000000     3.919000000
H     2.949000000     3.240000000     2.589000000
O    -4.131000000    -4.656000000    -3.309000000
H    -3.429000000    -4.492000000    -3.938000000
H    -3.722000000    -5.185000000    -2.625000000
O     1.718000000    -6.025000000    -1.755000000
H     2.373000000    -6.608000000    -2.139000000
H     1.462000000    -6.456000000    -0.940000000
O     3.665000000     0.897000000     4.097000000
H     2.833000000     0.898000000     4.569000000
H     4.330000000     0.848000000     4.783000000
O     4.372000000    -0.587000000    -2.889000000
H     4.012000000    -1.301000000    -3.416000000
H     3.665000000    -0.354000000    -2.287000000
O     5.042000000     0.431000000     1.846000000
H     5.756000000     0.274000000     2.464000000
H     4.288000000     0.636000000     2.399000000
O    -3.114000000    -1.553000000    -3.284000000
H    -3.394000000    -2.445000000    -3.487000000
H    -2.258000000    -1.468000000    -3.704000000
O     4.292000000     2.079000000    -1.082000000
H     3.749000000     2.231000000    -0.309000000
H     4.958000000     1.458000000    -0.789000000
O    -1.416000000    -4.213000000     5.343000000
H    -0.903000000    -4.464000000     6.111000000
H    -0.831000000    -3.646000000     4.840000000
O    -6.911000000     0.847000000    -0.382000000
H    -6.012000000     0.588000000    -0.182000000
H    -7.404000000     0.026000000    -0.378000000
O    -2.322000000     7.660000000    -2.201000000
H    -1.749000000     6.991000000    -1.826000000
H    -2.410000000     7.412000000    -3.121000000
O    -1.852000000     0.996000000    -4.676000000
H    -1.907000000     1.951000000    -4.656000000
H    -2.569000000     0.702000000    -4.115000000
O     1.906000000    -1.218000000    -1.927000000
H     2.513000000    -1.936000000    -1.748000000
H     1.473000000    -1.056000000    -1.089000000
O     1.194000000    -1.490000000     4.960000000
H     0.292000000    -1.182000000     4.867000000
H     1.629000000    -0.806000000     5.470000000
O     1.015000000     4.617000000     4.848000000
H     1.592000000     4.035000000     5.343000000
H     1.116000000     4.337000000     3.938000000
O     3.554000000     5.783000000    -2.090000000
H     2.669000000     6.117000000    -2.236000000
H     3.526000000     5.405000000    -1.212000000
O    -0.368000000    -0.765000000    -6.004000000
H    -0.746000000    -0.172000000    -5.354000000
H    -0.543000000    -0.342000000    -6.844000000
O    -1.803000000    -5.676000000     2.850000000
H    -2.677000000    -5.535000000     2.486000000
H    -1.822000000    -5.230000000     3.697000000
O    -1.699000000    -0.124000000     4.245000000
H    -1.097000000     0.418000000     3.736000000
H    -2.442000000    -0.272000000     3.660000000
O     2.992000000    -3.704000000    -2.295000000
H     2.791000000    -4.616000000    -2.086000000
H     2.746000000    -3.609000000    -3.215000000
O    -2.562000000     4.254000000    -0.276000000
H    -2.760000000     4.016000000    -1.182000000
H    -1.829000000     4.865000000    -0.344000000
O    -2.551000000     3.833000000    -3.941000000
H    -2.421000000     4.087000000    -4.855000000
H    -3.038000000     4.562000000    -3.557000000
