144
-2793.73599
O     5.801000000     1.770000000    -1.199000000
H     5.659000000     2.639000000    -0.824000000
H     5.526000000     1.856000000    -2.112000000
O    -1.938000000    -2.173000000     4.061000000
H    -2.302000000    -1.941000000     3.207000000
H    -2.606000000    -2.728000000     4.463000000
O    -4.350000000    -0.372000000    -3.979000000
H    -4.103000000     0.196000000    -4.709000000
H    -5.076000000     0.085000000    -3.556000000
O     0.602000000    -1.629000000     5.933000000
H    -0.087000000    -1.783000000     5.286000000
H     1.327000000    -1.260000000     5.428000000
O    -6.395000000    -1.599000000     1.792000000
H    -6.472000000    -1.384000000     2.721000000
H    -6.977000000    -2.349000000     1.670000000
O    -0.907000000     6.545000000    -0.700000000
H    -0.867000000     6.227000000    -1.602000000
H    -0.673000000     7.471000000    -0.763000000
O     0.827000000     4.703000000     2.279000000
H     0.125000000     5.000000000     1.699000000
H     1.285000000     4.030000000     1.775000000
O    -2.765000000    -7.775000000    -0.616000000
H    -2.757000000    -7.067000000    -1.260000000
H    -1.887000000    -8.154000000    -0.667000000
O     0.298000000     6.453000000    -3.311000000
H    -0.470000000     6.925000000    -3.633000000
H     0.950000000     6.555000000    -4.004000000
O    -3.832000000    -1.063000000     2.361000000
H    -4.126000000    -0.880000000     3.253000000
H    -4.616000000    -0.950000000     1.823000000
O    -3.238000000    -4.873000000     3.902000000
H    -3.582000000    -5.052000000     4.777000000
H    -3.947000000    -5.124000000     3.310000000
O     4.763000000     4.098000000    -0.110000000
H     4.745000000     5.053000000    -0.042000000
H     3.888000000     3.821000000     0.161000000
O     2.098000000     8.095000000    -0.788000000
H     1.909000000     7.211000000    -1.102000000
H     1.242000000     8.523000000    -0.749000000
O    -2.047000000     5.055000000     0.940000000
H    -2.419000000     5.706000000     1.536000000
H    -1.505000000     5.564000000     0.338000000
O     3.690000000     1.486000000    -2.953000000
H     3.041000000     0.796000000    -3.090000000
H     3.244000000     2.130000000    -2.404000000
O     4.175000000     6.830000000     0.746000000
H     3.390000000     7.364000000     0.623000000
H     4.152000000     6.579000000     1.670000000
O     3.294000000     3.467000000     4.951000000
H     3.547000000     2.671000000     5.419000000
H     2.460000000     3.721000000     5.345000000
O    -4.537000000    -2.526000000    -1.803000000
H    -5.299000000    -2.003000000    -2.051000000
H    -3.848000000    -1.883000000    -1.638000000
O    -2.500000000     2.381000000     0.270000000
H    -2.030000000     1.665000000     0.698000000
H    -2.163000000     3.173000000     0.688000000
O    -2.022000000    -5.777000000     1.002000000
H    -2.357000000    -6.618000000     0.691000000
H    -2.748000000    -5.167000000     0.874000000
O     4.267000000     1.688000000    -6.135000000
H     3.973000000     1.864000000    -5.241000000
H     4.764000000     0.873000000    -6.068000000
O    -4.145000000     0.038000000    -0.306000000
H    -3.534000000     0.731000000    -0.556000000
H    -4.657000000     0.416000000     0.409000000
O     0.265000000    -5.891000000    -0.527000000
H    -0.524000000    -6.077000000    -0.017000000
H     0.147000000    -6.384000000    -1.338000000
O    -5.037000000    -4.294000000     0.814000000
H    -4.883000000    -3.659000000     0.114000000
H    -5.385000000    -3.773000000     1.538000000
O    -5.395000000    -4.943000000    -2.354000000
H    -5.110000000    -4.135000000    -1.929000000
H    -5.475000000    -4.712000000    -3.280000000
O     2.886000000    -2.023000000     2.459000000
H     2.338000000    -2.646000000     2.936000000
H     2.857000000    -1.226000000     2.988000000
O     4.222000000     5.989000000    -4.655000000
H     3.604000000     6.720000000    -4.673000000
H     3.674000000     5.216000000    -4.523000000
O     1.142000000    -4.058000000    -3.448000000
H     0.525000000    -4.108000000    -2.717000000
H     0.651000000    -4.392000000    -4.199000000
O     2.482000000     4.005000000    -4.414000000
H     2.299000000     3.380000000    -3.712000000
H     2.027000000     3.649000000    -5.176000000
O     2.145000000    -0.459000000    -3.935000000
H     1.861000000    -1.093000000    -3.276000000
H     1.404000000    -0.389000000    -4.536000000
O    -0.780000000     3.744000000    -2.716000000
H    -0.365000000     4.565000000    -2.983000000
H    -0.123000000     3.310000000    -2.173000000
O     3.979000000     2.281000000     2.233000000
H     3.918000000     2.846000000     3.003000000
H     3.339000000     2.642000000     1.620000000
O    -0.457000000     0.201000000    -4.916000000
H    -1.135000000     0.118000000    -4.245000000
H    -0.916000000     0.044000000    -5.741000000
O    -2.675000000    -5.833000000    -2.321000000
H    -3.511000000    -5.391000000    -2.469000000
H    -2.349000000    -6.029000000    -3.199000000
O     2.517000000    -4.564000000     0.316000000
H     1.898000000    -5.054000000    -0.225000000
H     2.068000000    -3.740000000     0.507000000
O    -0.203000000     0.916000000     6.531000000
H     0.206000000     0.052000000     6.576000000
H    -0.913000000     0.812000000     5.897000000
O    -2.052000000    -2.390000000    -4.485000000
H    -2.133000000    -3.081000000    -3.827000000
H    -2.876000000    -1.906000000    -4.426000000
O     4.675000000     0.122000000     0.415000000
H     5.162000000     0.665000000    -0.205000000
H     4.272000000     0.749000000     1.015000000
O    -0.129000000    -4.735000000     3.394000000
H    -0.130000000    -5.038000000     2.486000000
H    -0.960000000    -4.270000000     3.492000000
O     1.033000000     1.912000000    -6.368000000
H     1.806000000     1.360000000    -6.252000000
H     0.334000000     1.445000000    -5.911000000
O     0.332000000     2.351000000     4.219000000
H     0.409000000     3.235000000     3.861000000
H     0.170000000     2.484000000     5.153000000
O     2.287000000     5.623000000    -1.338000000
H     1.879000000     5.519000000    -2.197000000
H     2.331000000     4.735000000    -0.984000000
O    -0.022000000    -2.882000000    -6.649000000
H    -0.423000000    -2.510000000    -5.864000000
H     0.467000000    -2.156000000    -7.036000000
O    -2.713000000     0.489000000     5.342000000
H    -3.328000000    -0.036000000     5.853000000
H    -2.456000000    -0.081000000     4.617000000
O     3.564000000     5.833000000     3.174000000
H     3.572000000     5.448000000     4.050000000
H     2.826000000     5.410000000     2.734000000
O     2.532000000    -1.386000000    -0.827000000
H     3.168000000    -1.245000000    -0.126000000
H     1.753000000    -0.907000000    -0.543000000
O    -3.189000000     3.682000000    -4.049000000
H    -2.339000000     3.500000000    -3.649000000
H    -3.693000000     4.111000000    -3.357000000
O     1.932000000     0.011000000     4.373000000
H     2.660000000     0.591000000     4.596000000
H     1.176000000     0.593000000     4.301000000
