144
-2830.38865
O     6.936000000     2.706000000    -0.518000000
H     6.105000000     2.438000000    -0.125000000
H     7.196000000     3.482000000    -0.023000000
O    -2.598000000    -2.454000000     3.353000000
H    -3.094000000    -1.737000000     2.959000000
H    -3.144000000    -3.228000000     3.216000000
O    -5.068000000     2.469000000    -2.335000000
H    -5.935000000     2.839000000    -2.497000000
H    -4.462000000     3.183000000    -2.533000000
O    -5.238000000    -0.258000000    -2.354000000
H    -5.289000000     0.697000000    -2.397000000
H    -5.985000000    -0.561000000    -2.870000000
O     1.152000000     5.995000000     0.291000000
H     1.104000000     5.045000000     0.181000000
H     0.488000000     6.339000000    -0.307000000
O     5.566000000     0.772000000    -2.177000000
H     5.365000000     1.074000000    -3.062000000
H     5.148000000     1.415000000    -1.604000000
O     3.429000000    -3.936000000    -2.783000000
H     3.325000000    -4.687000000    -3.367000000
H     2.729000000    -3.336000000    -3.039000000
O    -4.431000000    -0.427000000     2.271000000
H    -4.107000000     0.032000000     1.496000000
H    -5.139000000    -0.981000000     1.942000000
O    -5.583000000    -5.846000000    -1.806000000
H    -6.009000000    -6.019000000    -2.646000000
H    -5.025000000    -5.087000000    -1.973000000
O    -1.031000000     7.332000000    -1.292000000
H    -0.924000000     8.190000000    -1.704000000
H    -0.971000000     6.710000000    -2.017000000
O     3.582000000     4.349000000    -1.549000000
H     3.944000000     3.936000000    -0.765000000
H     2.640000000     4.192000000    -1.489000000
O     1.830000000     7.666000000     2.473000000
H     1.433000000     7.701000000     3.343000000
H     1.235000000     7.118000000     1.960000000
O    -4.877000000    -2.368000000    -0.305000000
H    -5.512000000    -1.999000000     0.308000000
H    -4.753000000    -1.684000000    -0.963000000
O     5.455000000     4.535000000     3.833000000
H     5.102000000     5.356000000     4.177000000
H     4.744000000     4.172000000     3.305000000
O     3.777000000     4.233000000    -4.246000000
H     4.002000000     4.622000000    -3.401000000
H     3.916000000     3.295000000    -4.122000000
O    -3.579000000     1.654000000     0.363000000
H    -3.026000000     2.395000000     0.609000000
H    -3.358000000     1.484000000    -0.553000000
O    -1.687000000    -5.553000000    -1.764000000
H    -1.173000000    -5.957000000    -1.065000000
H    -2.202000000    -6.272000000    -2.129000000
O    -2.161000000     4.042000000     0.067000000
H    -2.941000000     4.279000000    -0.434000000
H    -1.429000000     4.296000000    -0.494000000
O    -3.388000000    -4.905000000     0.420000000
H    -3.851000000    -4.077000000     0.292000000
H    -2.789000000    -4.962000000    -0.324000000
O     2.888000000    -1.924000000     4.287000000
H     2.906000000    -2.398000000     3.456000000
H     1.958000000    -1.791000000     4.467000000
O     0.111000000    -3.428000000    -3.091000000
H    -0.531000000    -3.826000000    -2.504000000
H    -0.259000000    -2.571000000    -3.306000000
O     1.396000000     5.139000000    -5.116000000
H     1.079000000     4.652000000    -5.876000000
H     2.144000000     4.632000000    -4.801000000
O    -0.587000000    -0.872000000    -4.462000000
H    -1.433000000    -1.288000000    -4.297000000
H    -0.567000000    -0.739000000    -5.410000000
O    -0.599000000     4.902000000    -2.573000000
H    -0.147000000     4.999000000    -3.411000000
H    -0.089000000     4.244000000    -2.100000000
O     3.123000000    -3.695000000     1.912000000
H     2.679000000    -4.205000000     1.234000000
H     3.707000000    -4.322000000     2.339000000
O     2.991000000     3.852000000     2.974000000
H     3.129000000     2.942000000     3.237000000
H     2.681000000     3.796000000     2.070000000
O    -3.197000000    -0.286000000    -6.655000000
H    -3.358000000    -0.376000000    -5.716000000
H    -3.249000000    -1.180000000    -6.993000000
O    -3.062000000    -3.710000000    -3.442000000
H    -3.320000000    -4.099000000    -4.278000000
H    -2.696000000    -4.439000000    -2.941000000
O     2.274000000    -5.903000000    -0.212000000
H     2.815000000    -6.633000000    -0.513000000
H     2.561000000    -5.158000000    -0.741000000
O     4.783000000    -0.198000000     2.655000000
H     3.981000000    -0.224000000     3.176000000
H     5.447000000     0.144000000     3.254000000
O    -0.342000000    -6.717000000     0.386000000
H     0.590000000    -6.503000000     0.340000000
H    -0.364000000    -7.626000000     0.684000000
O     5.213000000    -2.140000000     0.682000000
H     5.168000000    -1.280000000     1.098000000
H     4.584000000    -2.674000000     1.167000000
O    -3.438000000    -1.131000000    -4.056000000
H    -3.277000000    -2.054000000    -3.859000000
H    -4.118000000    -0.869000000    -3.436000000
O     4.719000000     1.678000000     0.591000000
H     3.948000000     2.208000000     0.795000000
H     4.618000000     0.893000000     1.129000000
O     0.868000000    -5.044000000     4.690000000
H     0.157000000    -5.446000000     4.190000000
H     0.864000000    -4.127000000     4.415000000
O    -3.856000000    -5.053000000     3.697000000
H    -4.540000000    -5.227000000     3.051000000
H    -4.298000000    -5.138000000     4.542000000
O    -0.177000000     1.972000000    -5.070000000
H     0.368000000     1.254000000    -5.392000000
H    -0.194000000     1.853000000    -4.121000000
O     2.109000000    -0.805000000    -3.891000000
H     2.225000000    -0.731000000    -2.944000000
H     1.160000000    -0.788000000    -4.018000000
O    -0.091000000    -2.492000000     4.193000000
H    -0.935000000    -2.755000000     3.825000000
H    -0.300000000    -2.180000000     5.073000000
O    -2.318000000     3.364000000     4.415000000
H    -1.707000000     2.779000000     3.967000000
H    -2.869000000     3.717000000     3.716000000
O     4.726000000     7.067000000    -1.174000000
H     4.615000000     7.216000000    -0.235000000
H     3.963000000     6.547000000    -1.426000000
O    -1.201000000    -5.573000000     2.856000000
H    -0.873000000    -5.786000000     1.982000000
H    -2.063000000    -5.188000000     2.700000000
O    -1.827000000     1.305000000     2.674000000
H    -1.174000000     0.670000000     2.381000000
H    -2.667000000     0.866000000     2.536000000
O     1.517000000    -5.553000000    -4.171000000
H     1.392000000    -5.279000000    -5.079000000
H     0.961000000    -4.962000000    -3.663000000
O     1.259000000     4.878000000     5.095000000
H     1.530000000     4.442000000     5.903000000
H     1.616000000     4.331000000     4.396000000
O     2.849000000    -1.018000000    -1.223000000
H     3.651000000    -0.985000000    -0.701000000
H     2.142000000    -0.995000000    -0.577000000
O    -3.650000000     4.629000000    -2.933000000
H    -3.868000000     5.550000000    -3.076000000
H    -2.706000000     4.580000000    -3.079000000
O     2.901000000     1.498000000     4.505000000
H     3.496000000     1.444000000     5.254000000
H     2.107000000     1.050000000     4.798000000
