144
-2803.64762
O     2.337000000    -1.054000000     3.369000000
H     1.944000000    -0.373000000     2.822000000
H     1.827000000    -1.840000000     3.174000000
O    -3.377000000     1.385000000     0.962000000
H    -2.856000000     1.582000000     0.184000000
H    -3.340000000     0.432000000     1.040000000
O     5.201000000    -2.005000000    -2.916000000
H     5.940000000    -1.942000000    -3.520000000
H     4.865000000    -1.111000000    -2.854000000
O    -2.427000000     0.994000000     6.275000000
H    -1.908000000     0.564000000     5.595000000
H    -2.336000000     0.426000000     7.040000000
O     3.857000000    -4.350000000     2.304000000
H     3.467000000    -5.197000000     2.521000000
H     3.111000000    -3.755000000     2.226000000
O     0.582000000     6.459000000     1.408000000
H     1.131000000     5.787000000     1.003000000
H     0.280000000     6.995000000     0.675000000
O    -0.873000000     4.071000000     1.584000000
H    -0.679000000     4.967000000     1.858000000
H    -0.049000000     3.747000000     1.221000000
O     4.509000000    -1.679000000     0.154000000
H     3.583000000    -1.912000000     0.089000000
H     4.751000000    -1.407000000    -0.731000000
O    -1.291000000    -4.247000000    -3.499000000
H    -1.798000000    -4.892000000    -3.005000000
H    -0.440000000    -4.224000000    -3.061000000
O     5.498000000     4.395000000     2.813000000
H     4.947000000     3.650000000     2.575000000
H     4.916000000     5.153000000     2.755000000
O     0.918000000    -2.367000000    -4.740000000
H     0.520000000    -1.504000000    -4.852000000
H     0.344000000    -2.960000000    -5.224000000
O    -5.307000000    -1.156000000     3.658000000
H    -5.687000000    -1.923000000     3.229000000
H    -5.624000000    -0.413000000     3.146000000
O     2.998000000     6.191000000     2.871000000
H     3.074000000     7.145000000     2.858000000
H     2.207000000     6.021000000     3.383000000
O     3.081000000     2.636000000    -3.401000000
H     2.730000000     2.047000000    -4.069000000
H     2.349000000     2.781000000    -2.801000000
O     1.471000000    -6.056000000     1.764000000
H     0.865000000    -6.723000000     2.086000000
H     1.357000000    -6.066000000     0.814000000
O    -3.765000000    -0.483000000    -1.998000000
H    -3.715000000    -1.404000000    -1.742000000
H    -4.681000000    -0.352000000    -2.244000000
O     1.296000000    -4.146000000    -2.220000000
H     1.907000000    -3.837000000    -2.889000000
H     1.653000000    -4.989000000    -1.941000000
O     4.529000000     0.575000000    -2.574000000
H     4.756000000     0.738000000    -1.658000000
H     4.235000000     1.424000000    -2.903000000
O    -3.874000000    -4.417000000     4.238000000
H    -4.264000000    -3.581000000     4.491000000
H    -3.977000000    -4.451000000     3.287000000
O    -4.036000000    -4.558000000     1.450000000
H    -3.235000000    -4.425000000     0.943000000
H    -4.316000000    -5.445000000     1.227000000
O    -4.726000000     3.012000000     3.169000000
H    -3.868000000     2.678000000     2.908000000
H    -4.723000000     2.961000000     4.125000000
O     5.024000000     1.858000000    -0.163000000
H     5.058000000     2.640000000    -0.714000000
H     4.376000000     2.068000000     0.510000000
O    -1.407000000     4.137000000     5.805000000
H    -0.493000000     3.868000000     5.885000000
H    -1.369000000     5.089000000     5.709000000
O     2.006000000     6.017000000    -2.873000000
H     1.883000000     5.415000000    -2.139000000
H     2.462000000     6.768000000    -2.493000000
O    -2.726000000    -0.588000000     3.794000000
H    -2.627000000     0.318000000     3.500000000
H    -3.672000000    -0.719000000     3.853000000
O    -3.825000000    -3.186000000    -1.476000000
H    -4.497000000    -3.157000000    -2.157000000
H    -3.464000000    -4.071000000    -1.534000000
O    -6.767000000    -3.872000000     0.697000000
H    -5.811000000    -3.826000000     0.709000000
H    -7.054000000    -3.000000000     0.967000000
O     2.159000000     2.396000000     4.968000000
H     1.254000000     2.600000000     5.206000000
H     2.641000000     3.204000000     5.146000000
O     4.420000000     7.751000000    -0.418000000
H     4.009000000     6.895000000    -0.297000000
H     3.779000000     8.375000000    -0.076000000
O    -2.735000000    -0.464000000    -4.901000000
H    -2.720000000    -0.560000000    -3.949000000
H    -3.662000000    -0.374000000    -5.118000000
O    -2.215000000     1.629000000    -1.337000000
H    -2.700000000     0.845000000    -1.597000000
H    -1.419000000     1.605000000    -1.868000000
O     4.787000000     3.916000000    -1.776000000
H     4.232000000     3.821000000    -2.550000000
H     4.258000000     4.426000000    -1.163000000
O     2.044000000     0.979000000    -5.218000000
H     1.206000000     0.523000000    -5.299000000
H     2.285000000     1.199000000    -6.118000000
O    -0.824000000     4.014000000    -2.657000000
H    -1.400000000     4.253000000    -1.931000000
H     0.028000000     3.865000000    -2.247000000
O    -2.512000000     4.536000000    -0.637000000
H    -2.636000000     3.629000000    -0.916000000
H    -2.229000000     4.470000000     0.275000000
O     3.295000000     2.677000000     2.337000000
H     2.930000000     2.165000000     3.059000000
H     2.532000000     3.073000000     1.915000000
O    -1.494000000     3.637000000    -5.201000000
H    -2.449000000     3.578000000    -5.180000000
H    -1.252000000     3.924000000    -4.320000000
O    -2.942000000    -6.032000000    -1.910000000
H    -3.820000000    -6.233000000    -2.233000000
H    -2.425000000    -6.809000000    -2.123000000
O     0.980000000    -3.427000000     2.882000000
H     0.111000000    -3.523000000     3.270000000
H     1.222000000    -4.314000000     2.614000000
O     4.817000000    -0.502000000     2.509000000
H     3.965000000    -0.686000000     2.905000000
H     4.787000000    -0.943000000     1.660000000
O     0.538000000     5.582000000    -5.598000000
H     0.887000000     5.990000000    -4.806000000
H     0.135000000     4.770000000    -5.292000000
O     3.382000000     5.305000000     0.410000000
H     3.242000000     5.656000000     1.290000000
H     2.658000000     4.694000000     0.278000000
O    -0.187000000    -0.225000000    -5.906000000
H    -1.064000000    -0.069000000    -5.557000000
H    -0.278000000    -0.099000000    -6.850000000
O    -1.429000000    -3.472000000    -6.086000000
H    -1.529000000    -3.705000000    -5.163000000
H    -1.611000000    -2.533000000    -6.117000000
O    -1.269000000    -3.126000000     4.335000000
H    -2.007000000    -3.718000000     4.480000000
H    -1.672000000    -2.264000000     4.226000000
O    -0.335000000     7.201000000    -1.105000000
H    -0.597000000     6.473000000    -1.668000000
H    -0.864000000     7.939000000    -1.406000000
O     2.075000000    -2.759000000    -0.226000000
H     1.346000000    -2.182000000     0.001000000
H     1.757000000    -3.265000000    -0.973000000
O    -1.872000000     2.214000000     3.419000000
H    -1.923000000     2.948000000     4.030000000
H    -1.587000000     2.608000000     2.594000000
