144
-2818.63922
O    -3.317000000     2.887000000    -1.616000000
H    -3.731000000     3.232000000    -2.407000000
H    -2.657000000     2.273000000    -1.940000000
O     1.089000000     8.705000000     1.689000000
H     2.003000000     8.489000000     1.877000000
H     0.631000000     7.866000000     1.729000000
O    -5.648000000     3.064000000     2.875000000
H    -5.234000000     3.312000000     3.701000000
H    -4.963000000     3.188000000     2.217000000
O    -3.680000000    -3.963000000    -3.786000000
H    -3.588000000    -4.763000000    -4.303000000
H    -3.265000000    -3.285000000    -4.320000000
O    -2.636000000     0.875000000     4.301000000
H    -3.328000000     1.025000000     3.655000000
H    -2.618000000     1.678000000     4.822000000
O    -4.933000000    -1.503000000     1.045000000
H    -4.670000000    -1.091000000     0.222000000
H    -5.188000000    -0.771000000     1.607000000
O     2.879000000     4.879000000     1.051000000
H     2.935000000     5.233000000     1.939000000
H     2.145000000     4.266000000     1.084000000
O     4.418000000     0.654000000    -5.964000000
H     4.321000000     0.506000000    -5.023000000
H     4.751000000    -0.177000000    -6.303000000
O    -3.381000000    -3.178000000     2.512000000
H    -3.862000000    -2.834000000     1.759000000
H    -4.047000000    -3.294000000     3.189000000
O     5.686000000     2.620000000     2.494000000
H     5.583000000     2.118000000     1.685000000
H     6.105000000     3.435000000     2.218000000
O     5.600000000     1.297000000    -0.030000000
H     6.273000000     1.297000000    -0.710000000
H     5.564000000     0.389000000     0.271000000
O    -1.799000000     0.769000000    -2.410000000
H    -1.230000000     0.945000000    -3.159000000
H    -1.207000000     0.448000000    -1.729000000
O     2.914000000    -1.819000000    -4.399000000
H     3.081000000    -2.605000000    -3.878000000
H     3.758000000    -1.368000000    -4.428000000
O    -1.427000000    -4.290000000     0.820000000
H    -1.195000000    -3.452000000     0.420000000
H    -2.029000000    -4.060000000     1.527000000
O     3.571000000     3.707000000    -4.219000000
H     2.916000000     3.728000000    -4.917000000
H     3.467000000     2.843000000    -3.820000000
O     2.101000000    -5.024000000    -4.177000000
H     1.768000000    -5.851000000    -3.829000000
H     1.447000000    -4.755000000    -4.822000000
O    -0.339000000     6.364000000     0.907000000
H     0.153000000     5.548000000     1.001000000
H    -0.043000000     6.727000000     0.072000000
O     4.120000000     3.266000000    -1.037000000
H     4.697000000     2.718000000    -0.505000000
H     3.918000000     4.015000000    -0.477000000
O     3.413000000     1.199000000    -3.067000000
H     3.831000000     0.355000000    -2.895000000
H     3.708000000     1.763000000    -2.351000000
O    -1.799000000    -1.758000000     4.726000000
H    -2.536000000    -2.295000000     4.436000000
H    -2.032000000    -0.868000000     4.464000000
O     0.192000000    -1.628000000    -5.147000000
H     0.143000000    -2.061000000    -5.999000000
H     1.117000000    -1.678000000    -4.906000000
O     1.452000000     4.297000000    -1.460000000
H     1.270000000     3.999000000    -0.569000000
H     2.390000000     4.144000000    -1.577000000
O     0.821000000     0.572000000     4.385000000
H     0.165000000     0.719000000     3.704000000
H     1.344000000    -0.161000000     4.060000000
O     0.360000000     4.566000000    -3.923000000
H     0.814000000     4.434000000    -3.090000000
H    -0.378000000     5.135000000    -3.706000000
O    -2.470000000    -7.041000000    -3.874000000
H    -2.006000000    -6.526000000    -3.213000000
H    -3.392000000    -6.972000000    -3.627000000
O    -2.945000000    -6.575000000     1.059000000
H    -3.786000000    -6.174000000     0.841000000
H    -2.295000000    -5.915000000     0.820000000
O    -2.897000000     3.721000000     4.093000000
H    -2.547000000     4.526000000     4.472000000
H    -2.222000000     3.431000000     3.479000000
O     2.825000000    -4.694000000    -1.471000000
H     2.382000000    -5.303000000    -0.881000000
H     2.266000000    -4.664000000    -2.248000000
O    -2.787000000     5.909000000    -0.143000000
H    -2.657000000     5.062000000    -0.568000000
H    -1.959000000     6.083000000     0.304000000
O     2.295000000     6.166000000     3.533000000
H     2.513000000     5.925000000     4.433000000
H     2.365000000     7.120000000     3.516000000
O     5.163000000    -3.751000000    -2.367000000
H     4.340000000    -4.117000000    -2.045000000
H     5.427000000    -4.339000000    -3.074000000
O     1.232000000    -5.684000000     2.620000000
H     0.722000000    -5.167000000     3.243000000
H     1.251000000    -6.564000000     2.998000000
O     1.341000000    -6.344000000    -0.077000000
H     1.783000000    -7.154000000     0.179000000
H     1.181000000    -5.888000000     0.749000000
O     2.956000000     7.275000000    -1.255000000
H     2.217000000     7.795000000    -1.570000000
H     2.570000000     6.435000000    -1.007000000
O    -0.808000000     2.865000000     5.830000000
H    -0.516000000     2.006000000     5.524000000
H    -0.482000000     3.477000000     5.170000000
O    -4.809000000    -3.004000000    -1.642000000
H    -4.629000000    -2.071000000    -1.525000000
H    -4.464000000    -3.207000000    -2.511000000
O     5.026000000    -0.967000000    -2.683000000
H     5.820000000    -0.432000000    -2.672000000
H     5.322000000    -1.839000000    -2.420000000
O     0.645000000     0.920000000    -4.197000000
H     0.466000000     0.071000000    -4.601000000
H     1.577000000     0.891000000    -3.981000000
O    -3.432000000     3.098000000     1.263000000
H    -3.342000000     2.878000000     0.336000000
H    -2.536000000     3.245000000     1.563000000
O     3.969000000    -2.578000000     1.199000000
H     4.074000000    -3.478000000     1.508000000
H     3.292000000    -2.634000000     0.524000000
O    -1.375000000    -5.938000000    -1.495000000
H    -1.312000000    -5.263000000    -0.819000000
H    -0.560000000    -6.433000000    -1.415000000
O    -0.611000000     6.977000000     5.042000000
H    -0.259000000     6.135000000     4.753000000
H    -1.560000000     6.851000000     5.047000000
O     6.133000000    -1.241000000     0.715000000
H     5.365000000    -1.723000000     1.023000000
H     6.405000000    -1.704000000    -0.077000000
O     0.041000000     4.722000000     3.830000000
H     0.837000000     5.149000000     3.514000000
H    -0.261000000     4.199000000     3.088000000
O    -4.132000000    -0.052000000    -1.738000000
H    -3.252000000    -0.081000000    -2.115000000
H    -4.285000000     0.875000000    -1.560000000
O    -2.535000000    -1.921000000    -5.200000000
H    -3.078000000    -1.275000000    -4.748000000
H    -1.653000000    -1.772000000    -4.860000000
O    -4.894000000     5.960000000     3.007000000
H    -4.593000000     6.256000000     3.866000000
H    -4.503000000     5.092000000     2.902000000
O    -5.318000000    -0.026000000     3.333000000
H    -5.445000000     0.906000000     3.159000000
H    -5.293000000    -0.090000000     4.288000000
