144
-2809.92385
O    -2.048000000    -1.288000000    -2.030000000
H    -1.402000000    -0.675000000    -1.679000000
H    -1.532000000    -2.042000000    -2.316000000
O    -0.024000000     4.639000000     0.097000000
H    -0.441000000     4.181000000     0.827000000
H    -0.283000000     4.140000000    -0.678000000
O    -0.277000000    -3.191000000    -2.760000000
H     0.450000000    -3.799000000    -2.622000000
H    -1.012000000    -3.751000000    -3.010000000
O    -1.784000000     7.424000000    -0.975000000
H    -2.083000000     6.587000000    -0.621000000
H    -0.910000000     7.241000000    -1.319000000
O    -5.594000000     2.678000000     3.948000000
H    -5.438000000     3.455000000     3.412000000
H    -4.794000000     2.160000000     3.856000000
O    -2.417000000     3.905000000     2.172000000
H    -2.897000000     4.443000000     2.802000000
H    -2.193000000     3.110000000     2.657000000
O     3.800000000     5.498000000    -1.961000000
H     3.948000000     4.553000000    -1.967000000
H     3.459000000     5.683000000    -1.086000000
O     3.089000000     0.924000000     0.450000000
H     2.216000000     0.832000000     0.068000000
H     3.519000000     0.088000000     0.268000000
O     1.240000000    -2.536000000    -5.534000000
H     0.880000000    -2.505000000    -4.648000000
H     0.758000000    -1.861000000    -6.012000000
O     0.873000000     4.677000000    -4.422000000
H     0.331000000     4.291000000    -5.110000000
H     0.781000000     4.080000000    -3.680000000
O    -3.495000000    -4.589000000     3.923000000
H    -4.088000000    -3.838000000     3.955000000
H    -3.473000000    -4.837000000     2.999000000
O    -4.087000000    -0.459000000    -3.709000000
H    -4.397000000    -0.663000000    -4.591000000
H    -3.167000000    -0.721000000    -3.711000000
O    -3.904000000    -5.628000000     1.209000000
H    -3.168000000    -5.835000000     0.634000000
H    -4.679000000    -5.877000000     0.704000000
O    -0.443000000     1.122000000    -5.152000000
H    -0.068000000     1.455000000    -4.337000000
H     0.314000000     0.838000000    -5.665000000
O     1.960000000    -4.432000000    -1.976000000
H     2.356000000    -5.159000000    -2.456000000
H     2.051000000    -4.674000000    -1.055000000
O     1.819000000    -5.450000000     0.556000000
H     2.489000000    -6.130000000     0.626000000
H     1.127000000    -5.735000000     1.153000000
O     1.445000000    -0.009000000     3.915000000
H     2.317000000     0.371000000     3.812000000
H     1.039000000     0.086000000     3.053000000
O    -4.333000000     2.164000000    -4.095000000
H    -4.151000000     1.262000000    -3.831000000
H    -5.145000000     2.107000000    -4.598000000
O     3.627000000     2.848000000    -1.865000000
H     3.831000000     2.035000000    -1.403000000
H     2.681000000     2.814000000    -2.004000000
O     1.874000000    -6.565000000     4.346000000
H     1.336000000    -6.637000000     3.558000000
H     1.684000000    -5.692000000     4.688000000
O    -2.219000000     2.135000000     4.634000000
H    -1.298000000     1.938000000     4.805000000
H    -2.374000000     2.965000000     5.085000000
O     2.936000000     1.113000000    -4.546000000
H     3.158000000     0.306000000    -4.082000000
H     2.099000000     1.383000000    -4.170000000
O    -3.089000000     4.316000000    -2.960000000
H    -3.529000000     3.550000000    -3.329000000
H    -2.317000000     3.960000000    -2.519000000
O    -4.316000000     0.087000000     2.721000000
H    -3.722000000     0.234000000     1.984000000
H    -5.167000000    -0.072000000     2.313000000
O    -1.913000000    -5.677000000    -0.567000000
H    -1.185000000    -5.078000000    -0.399000000
H    -1.501000000    -6.455000000    -0.942000000
O    -2.196000000    -1.542000000     7.547000000
H    -1.603000000    -2.268000000     7.356000000
H    -2.426000000    -1.189000000     6.688000000
O     5.130000000    -0.913000000     2.110000000
H     4.660000000    -0.100000000     2.292000000
H     4.459000000    -1.594000000     2.157000000
O     3.267000000    -3.928000000     4.311000000
H     2.618000000    -3.437000000     3.806000000
H     4.026000000    -3.987000000     3.731000000
O    -0.745000000    -4.893000000     4.465000000
H    -1.650000000    -4.746000000     4.189000000
H    -0.417000000    -4.021000000     4.685000000
O    -4.823000000    -2.936000000     1.232000000
H    -5.654000000    -2.815000000     0.773000000
H    -4.597000000    -3.854000000     1.081000000
O     0.646000000     6.917000000    -2.415000000
H     1.408000000     6.572000000    -1.950000000
H     0.518000000     6.314000000    -3.147000000
O     3.461000000    -3.104000000     1.210000000
H     4.274000000    -3.583000000     1.050000000
H     2.770000000    -3.707000000     0.938000000
O     5.359000000     2.303000000    -3.999000000
H     4.757000000     1.594000000    -4.224000000
H     4.925000000     2.769000000    -3.284000000
O    -5.529000000     4.896000000    -1.940000000
H    -5.514000000     4.086000000    -1.430000000
H    -4.802000000     4.804000000    -2.556000000
O    -0.023000000    -6.454000000     2.252000000
H    -0.431000000    -6.072000000     3.029000000
H    -0.653000000    -7.108000000     1.948000000
O    -2.873000000    -0.333000000     5.109000000
H    -3.375000000    -0.527000000     4.318000000
H    -2.831000000     0.622000000     5.139000000
O    -2.738000000     7.684000000    -4.059000000
H    -2.546000000     8.190000000    -3.270000000
H    -2.678000000     6.771000000    -3.778000000
O     2.463000000    -0.639000000     6.328000000
H     1.908000000    -0.309000000     5.621000000
H     3.261000000    -0.933000000     5.889000000
O    -2.645000000     2.692000000    -6.412000000
H    -3.273000000     2.662000000    -5.691000000
H    -1.903000000     2.171000000    -6.105000000
O    -4.127000000    -0.408000000    -0.156000000
H    -4.161000000    -1.188000000     0.398000000
H    -3.844000000    -0.733000000    -1.011000000
O    -4.664000000     2.499000000    -0.619000000
H    -5.036000000     2.693000000     0.241000000
H    -4.320000000     1.610000000    -0.536000000
O     2.459000000     5.883000000     0.372000000
H     2.572000000     6.269000000     1.241000000
H     1.614000000     5.436000000     0.417000000
O    -5.430000000    -2.459000000     4.084000000
H    -5.220000000    -2.118000000     3.215000000
H    -5.770000000    -1.702000000     4.562000000
O    -3.193000000     5.060000000    -0.111000000
H    -2.765000000     4.517000000     0.551000000
H    -3.322000000     4.472000000    -0.855000000
O    -0.307000000    -2.225000000     5.304000000
H     0.574000000    -2.204000000     5.677000000
H    -0.433000000    -1.350000000     4.937000000
O     3.405000000    -1.515000000    -3.895000000
H     2.863000000    -2.179000000    -4.321000000
H     4.080000000    -1.305000000    -4.541000000
O     3.107000000     6.299000000    -4.465000000
H     3.466000000     5.996000000    -3.631000000
H     2.364000000     5.718000000    -4.630000000
O     3.729000000    -1.123000000    -1.044000000
H     3.704000000    -1.913000000    -0.504000000
H     3.302000000    -1.379000000    -1.861000000
