144
-2815.12015
O    -1.616000000    -2.022000000    -3.212000000
H    -1.820000000    -1.224000000    -3.699000000
H    -0.960000000    -1.751000000    -2.570000000
O     0.539000000     5.241000000     0.152000000
H    -0.311000000     5.215000000     0.591000000
H     0.480000000     4.568000000    -0.526000000
O    -1.262000000     8.284000000    -1.897000000
H    -0.855000000     9.098000000    -2.193000000
H    -0.541000000     7.654000000    -1.863000000
O     6.640000000    -0.471000000    -0.831000000
H     7.250000000     0.246000000    -1.005000000
H     6.042000000    -0.463000000    -1.578000000
O     4.903000000     6.760000000    -1.054000000
H     4.640000000     5.949000000    -1.488000000
H     4.288000000     6.853000000    -0.327000000
O     0.861000000    -1.314000000    -2.482000000
H     0.988000000    -0.684000000    -3.192000000
H     0.791000000    -0.775000000    -1.694000000
O    -2.634000000     2.573000000     2.765000000
H    -2.972000000     2.705000000     3.650000000
H    -2.876000000     1.672000000     2.548000000
O     0.775000000     5.226000000    -3.517000000
H     1.016000000     4.462000000    -2.993000000
H     1.159000000     5.968000000    -3.049000000
O    -5.353000000    -0.933000000    -2.329000000
H    -5.953000000    -0.240000000    -2.055000000
H    -4.923000000    -0.584000000    -3.110000000
O    -5.847000000    -5.594000000    -0.433000000
H    -6.695000000    -5.903000000    -0.750000000
H    -5.624000000    -4.867000000    -1.014000000
O     4.566000000     1.168000000    -2.260000000
H     4.895000000     1.999000000    -2.604000000
H     3.785000000     1.407000000    -1.762000000
O    -0.970000000    -3.982000000     3.910000000
H    -0.722000000    -3.101000000     3.627000000
H    -0.940000000    -3.943000000     4.866000000
O     5.263000000     0.337000000    -4.698000000
H     4.824000000     0.457000000    -3.856000000
H     6.152000000     0.661000000    -4.553000000
O     2.739000000     6.644000000     0.910000000
H     2.431000000     7.458000000     1.308000000
H     1.955000000     6.098000000     0.843000000
O     1.625000000     7.347000000    -1.687000000
H     2.006000000     8.114000000    -1.259000000
H     1.865000000     6.613000000    -1.121000000
O    -2.241000000    -0.967000000     4.513000000
H    -3.180000000    -1.154000000     4.506000000
H    -2.129000000    -0.328000000     5.216000000
O     0.132000000    -6.789000000    -0.614000000
H     0.150000000    -7.740000000    -0.507000000
H     0.749000000    -6.462000000     0.041000000
O    -2.835000000    -4.466000000    -3.896000000
H    -2.213000000    -4.986000000    -4.406000000
H    -2.376000000    -3.643000000    -3.726000000
O     4.042000000     2.041000000     1.116000000
H     3.663000000     2.221000000     0.255000000
H     3.620000000     1.229000000     1.398000000
O     4.276000000     2.869000000    -4.691000000
H     4.310000000     3.408000000    -5.481000000
H     4.571000000     2.005000000    -4.978000000
O     4.078000000     4.375000000    -2.347000000
H     3.375000000     3.904000000    -1.902000000
H     4.002000000     4.109000000    -3.263000000
O    -0.881000000     1.914000000    -3.282000000
H    -0.747000000     2.410000000    -4.090000000
H    -0.348000000     2.369000000    -2.630000000
O     0.981000000    -5.653000000     1.775000000
H     0.350000000    -5.125000000     2.263000000
H     0.735000000    -6.558000000     1.966000000
O    -4.709000000    -2.878000000     5.062000000
H    -4.613000000    -3.647000000     5.624000000
H    -4.971000000    -3.234000000     4.212000000
O     4.212000000    -2.921000000    -0.676000000
H     3.491000000    -3.164000000    -0.096000000
H     4.848000000    -2.495000000    -0.102000000
O     1.587000000     3.855000000     3.880000000
H     1.301000000     4.751000000     4.056000000
H     1.134000000     3.613000000     3.073000000
O     0.698000000     0.283000000     3.730000000
H    -0.205000000    -0.029000000     3.659000000
H     0.677000000     1.163000000     3.354000000
O     1.192000000     0.357000000    -4.794000000
H     0.608000000     1.088000000    -4.998000000
H     2.018000000     0.584000000    -5.220000000
O     5.899000000     3.396000000    -0.273000000
H     5.276000000     2.940000000     0.294000000
H     5.380000000     3.664000000    -1.031000000
O    -5.602000000     3.001000000     0.882000000
H    -5.288000000     2.097000000     0.904000000
H    -6.532000000     2.936000000     1.100000000
O    -3.632000000    -5.733000000     1.186000000
H    -3.147000000    -5.616000000     0.370000000
H    -4.530000000    -5.484000000     0.969000000
O    -4.813000000     0.706000000     4.142000000
H    -5.238000000     0.543000000     3.300000000
H    -5.361000000     0.249000000     4.780000000
O    -2.157000000     4.817000000     0.827000000
H    -2.817000000     4.845000000     0.133000000
H    -2.451000000     4.116000000     1.408000000
O    -2.197000000    -6.430000000     3.187000000
H    -2.657000000    -6.231000000     2.372000000
H    -1.785000000    -5.604000000     3.439000000
O     1.563000000    -3.870000000    -3.516000000
H     1.195000000    -3.041000000    -3.210000000
H     2.418000000    -3.925000000    -3.089000000
O     0.002000000     2.484000000     2.161000000
H     0.024000000     1.831000000     1.461000000
H    -0.894000000     2.820000000     2.147000000
O    -2.130000000     5.750000000    -3.914000000
H    -1.183000000     5.687000000    -4.043000000
H    -2.230000000     6.311000000    -3.145000000
O    -3.824000000     4.438000000    -1.503000000
H    -3.837000000     3.502000000    -1.705000000
H    -3.756000000     4.866000000    -2.356000000
O    -2.085000000    -5.198000000    -1.062000000
H    -1.442000000    -5.863000000    -0.815000000
H    -1.571000000    -4.518000000    -1.497000000
O     2.955000000    -3.528000000     1.665000000
H     2.564000000    -4.400000000     1.615000000
H     3.312000000    -3.475000000     2.552000000
O     3.509000000    -0.310000000     2.396000000
H     4.114000000    -0.914000000     2.825000000
H     2.664000000    -0.481000000     2.813000000
O     0.958000000     6.231000000    -6.006000000
H     0.871000000     7.062000000    -5.539000000
H     0.945000000     5.566000000    -5.317000000
O    -3.421000000     1.799000000    -2.180000000
H    -3.553000000     0.988000000    -2.672000000
H    -2.521000000     2.055000000    -2.379000000
O     1.431000000    -1.933000000     5.049000000
H     2.113000000    -1.828000000     5.712000000
H     1.425000000    -1.100000000     4.578000000
O    -4.864000000     0.238000000     1.053000000
H    -5.091000000    -0.589000000     1.478000000
H    -4.641000000    -0.007000000     0.155000000
O    -5.318000000    -3.688000000    -2.131000000
H    -4.417000000    -3.863000000    -2.405000000
H    -5.424000000    -2.744000000    -2.247000000
O    -7.018000000    -2.701000000     0.167000000
H    -6.308000000    -2.811000000    -0.466000000
H    -7.661000000    -3.366000000    -0.077000000
O     7.150000000    -0.157000000     1.736000000
H     6.751000000    -0.108000000     0.867000000
H     6.844000000    -0.991000000     2.094000000
