144
-2844.77342
O    -4.141000000     0.267000000     0.857000000
H    -4.349000000    -0.242000000     0.074000000
H    -4.524000000    -0.234000000     1.578000000
O     4.456000000     2.818000000     0.619000000
H     5.005000000     3.592000000     0.745000000
H     3.696000000     2.968000000     1.181000000
O     2.579000000    -2.904000000    -1.539000000
H     3.367000000    -2.948000000    -2.081000000
H     2.802000000    -3.401000000    -0.752000000
O    -6.890000000     4.156000000    -2.011000000
H    -6.438000000     3.313000000    -2.014000000
H    -6.342000000     4.720000000    -1.466000000
O     2.649000000    -2.551000000     4.475000000
H     3.016000000    -3.005000000     5.233000000
H     3.338000000    -1.946000000     4.201000000
O     3.771000000     4.903000000    -1.630000000
H     4.614000000     5.356000000    -1.619000000
H     3.858000000     4.219000000    -0.966000000
O     0.375000000    -3.862000000     3.725000000
H     1.012000000    -3.291000000     4.155000000
H     0.136000000    -4.502000000     4.396000000
O    -1.511000000     2.761000000    -7.172000000
H    -2.284000000     2.351000000    -7.561000000
H    -1.582000000     2.566000000    -6.237000000
O    -3.510000000    -3.661000000    -0.338000000
H    -2.983000000    -4.029000000    -1.047000000
H    -3.032000000    -3.890000000     0.459000000
O     1.328000000    -7.244000000     1.719000000
H     1.896000000    -6.728000000     2.292000000
H     0.678000000    -6.619000000     1.400000000
O     1.695000000     3.781000000    -3.073000000
H     2.409000000     4.103000000    -2.523000000
H     1.080000000     4.514000000    -3.121000000
O     4.617000000     1.161000000     6.899000000
H     5.297000000     1.197000000     6.226000000
H     3.794000000     1.202000000     6.411000000
O    -2.153000000    -4.362000000     2.390000000
H    -1.413000000    -3.967000000     2.850000000
H    -2.565000000    -4.930000000     3.041000000
O     4.610000000     0.509000000    -0.836000000
H     4.161000000     0.506000000    -1.682000000
H     4.476000000     1.394000000    -0.498000000
O    -4.724000000    -1.470000000    -1.257000000
H    -4.378000000    -2.221000000    -0.777000000
H    -4.008000000    -1.201000000    -1.832000000
O    -0.897000000    -2.097000000    -3.632000000
H    -1.502000000    -1.412000000    -3.346000000
H    -0.109000000    -1.624000000    -3.899000000
O     1.050000000     2.279000000     6.610000000
H     1.189000000     1.378000000     6.319000000
H     0.435000000     2.204000000     7.339000000
O     0.274000000     6.107000000    -3.439000000
H     0.287000000     6.730000000    -4.166000000
H    -0.156000000     6.580000000    -2.726000000
O    -1.485000000    -4.359000000    -2.040000000
H    -1.369000000    -3.718000000    -2.741000000
H    -0.794000000    -4.152000000    -1.410000000
O     3.649000000     1.459000000     4.486000000
H     3.558000000     1.378000000     3.536000000
H     3.366000000     2.353000000     4.678000000
O    -4.008000000     0.322000000    -4.931000000
H    -4.830000000     0.509000000    -4.478000000
H    -3.370000000     0.196000000    -4.228000000
O    -0.630000000     5.484000000     0.479000000
H    -1.084000000     5.734000000    -0.326000000
H     0.065000000     6.136000000     0.574000000
O    -2.392000000    -3.668000000    -5.227000000
H    -1.651000000    -3.581000000    -4.627000000
H    -2.256000000    -4.514000000    -5.655000000
O    -1.035000000     2.494000000    -4.484000000
H    -1.321000000     2.228000000    -3.610000000
H    -0.461000000     3.245000000    -4.330000000
O     1.969000000    -1.177000000    -3.637000000
H     1.979000000    -1.690000000    -2.829000000
H     2.224000000    -0.295000000    -3.364000000
O     3.926000000    -3.806000000     0.816000000
H     3.312000000    -3.815000000     1.551000000
H     3.980000000    -4.720000000     0.538000000
O    -0.312000000    -5.483000000     0.544000000
H    -0.853000000    -5.217000000     1.288000000
H    -0.927000000    -5.890000000    -0.066000000
O     2.801000000     1.311000000    -3.074000000
H     3.251000000     1.377000000    -3.917000000
H     2.107000000     1.968000000    -3.121000000
O     7.491000000     0.153000000    -1.253000000
H     7.983000000     0.821000000    -0.776000000
H     6.580000000     0.300000000    -0.998000000
O    -3.485000000     6.465000000    -0.712000000
H    -2.980000000     7.165000000    -1.127000000
H    -3.290000000     5.687000000    -1.235000000
O     5.444000000    -1.599000000     0.865000000
H     5.000000000    -2.447000000     0.863000000
H     5.019000000    -1.104000000     0.165000000
O    -5.162000000     2.953000000     0.587000000
H    -5.329000000     2.029000000     0.397000000
H    -4.209000000     3.037000000     0.546000000
O    -4.536000000    -2.359000000    -4.771000000
H    -3.743000000    -2.849000000    -4.988000000
H    -4.444000000    -1.533000000    -5.247000000
O    -4.774000000     4.913000000    -4.139000000
H    -5.031000000     5.023000000    -5.054000000
H    -5.346000000     4.219000000    -3.811000000
O     0.828000000    -0.043000000     5.402000000
H     0.241000000     0.354000000     4.759000000
H     1.414000000    -0.595000000     4.884000000
O    -6.886000000     0.842000000    -1.081000000
H    -6.246000000     0.134000000    -1.155000000
H    -7.243000000     0.750000000    -0.198000000
O     6.897000000     1.483000000     2.173000000
H     6.259000000     2.008000000     1.689000000
H     7.705000000     1.560000000     1.666000000
O    -0.102000000     3.803000000     2.717000000
H    -0.537000000     4.430000000     2.140000000
H    -0.516000000     2.964000000     2.516000000
O    -1.668000000    -1.102000000    -6.712000000
H    -1.865000000    -1.866000000    -6.171000000
H    -2.392000000    -0.498000000    -6.548000000
O    -2.346000000     2.165000000     1.538000000
H    -2.899000000     1.396000000     1.396000000
H    -1.733000000     2.159000000     0.802000000
O     2.767000000    -5.348000000     2.959000000
H     3.453000000    -5.363000000     3.626000000
H     2.176000000    -4.649000000     3.239000000
O     2.579000000     3.417000000     2.585000000
H     1.719000000     3.835000000     2.554000000
H     3.179000000     4.121000000     2.831000000
O     1.063000000     2.355000000    -6.358000000
H     0.673000000     1.814000000    -5.672000000
H     0.324000000     2.616000000    -6.907000000
O    -6.697000000    -3.431000000    -3.350000000
H    -5.996000000    -3.006000000    -3.843000000
H    -7.329000000    -2.731000000    -3.182000000
O    -5.104000000     2.247000000    -2.745000000
H    -4.154000000     2.189000000    -2.840000000
H    -5.329000000     1.532000000    -2.150000000
O    -6.289000000    -4.534000000    -0.876000000
H    -5.379000000    -4.364000000    -0.630000000
H    -6.320000000    -4.356000000    -1.816000000
O     4.945000000    -1.219000000     3.551000000
H     4.946000000    -1.127000000     2.599000000
H     5.158000000    -0.344000000     3.877000000
O    -2.703000000     4.518000000    -2.376000000
H    -3.481000000     4.763000000    -2.876000000
H    -2.721000000     3.561000000    -2.358000000
