144
-2799.43879
O     0.635000000     2.720000000     1.752000000
H     0.351000000     2.767000000     2.665000000
H    -0.117000000     2.353000000     1.287000000
O     6.542000000     3.830000000    -2.777000000
H     5.941000000     3.145000000    -2.485000000
H     6.003000000     4.409000000    -3.315000000
O     0.012000000    -3.245000000    -1.032000000
H     0.348000000    -2.354000000    -1.121000000
H    -0.129000000    -3.539000000    -1.932000000
O    -2.836000000     2.108000000    -5.769000000
H    -3.553000000     2.140000000    -5.135000000
H    -2.043000000     2.100000000    -5.233000000
O    -3.902000000    -4.918000000     0.670000000
H    -4.154000000    -4.363000000     1.408000000
H    -4.725000000    -5.107000000     0.220000000
O     4.411000000     5.550000000    -3.874000000
H     4.450000000     6.414000000    -3.465000000
H     3.846000000     5.037000000    -3.296000000
O     3.005000000    -2.553000000     2.966000000
H     2.321000000    -2.583000000     3.636000000
H     3.216000000    -1.623000000     2.882000000
O     0.283000000    -5.693000000     3.247000000
H    -0.193000000    -5.371000000     2.482000000
H     0.496000000    -4.904000000     3.747000000
O    -1.144000000    -5.033000000     0.881000000
H    -2.101000000    -5.064000000     0.888000000
H    -0.934000000    -4.259000000     0.358000000
O    -2.350000000    -1.824000000    -3.866000000
H    -2.198000000    -1.214000000    -3.144000000
H    -3.299000000    -1.810000000    -3.995000000
O     2.026000000     2.499000000    -7.273000000
H     1.451000000     1.779000000    -7.015000000
H     1.564000000     3.288000000    -6.989000000
O     1.625000000     2.276000000     5.631000000
H     1.568000000     2.992000000     6.263000000
H     0.886000000     1.707000000     5.845000000
O    -2.013000000    -1.651000000     5.616000000
H    -2.269000000    -1.646000000     4.694000000
H    -2.782000000    -1.988000000     6.076000000
O    -1.315000000     2.829000000     4.196000000
H    -0.518000000     2.554000000     4.649000000
H    -1.995000000     2.244000000     4.531000000
O     7.096000000     0.835000000     0.243000000
H     6.173000000     0.805000000    -0.009000000
H     7.561000000     0.457000000    -0.503000000
O     5.282000000    -4.117000000     2.446000000
H     4.428000000    -3.684000000     2.451000000
H     5.260000000    -4.681000000     1.673000000
O    -4.458000000     2.796000000     2.385000000
H    -4.218000000     2.296000000     3.165000000
H    -4.465000000     3.707000000     2.676000000
O     5.743000000    -1.812000000    -5.475000000
H     6.272000000    -1.014000000    -5.454000000
H     4.853000000    -1.515000000    -5.286000000
O     3.091000000    -1.119000000    -4.923000000
H     3.045000000    -0.749000000    -4.042000000
H     2.751000000    -2.009000000    -4.827000000
O     6.204000000    -2.989000000    -2.272000000
H     7.082000000    -2.634000000    -2.414000000
H     6.034000000    -3.524000000    -3.047000000
O    -0.226000000     0.236000000     6.151000000
H     0.490000000    -0.198000000     6.614000000
H    -0.897000000    -0.441000000     6.058000000
O     0.522000000     0.210000000    -6.679000000
H    -0.236000000    -0.375000000    -6.684000000
H     1.098000000    -0.149000000    -6.003000000
O     7.133000000     1.487000000    -4.930000000
H     7.307000000     2.027000000    -5.701000000
H     6.214000000     1.654000000    -4.723000000
O     2.461000000    -3.646000000    -3.928000000
H     2.804000000    -3.516000000    -3.044000000
H     1.549000000    -3.905000000    -3.795000000
O     2.310000000     4.268000000     0.413000000
H     1.740000000     4.590000000    -0.286000000
H     1.863000000     3.490000000     0.746000000
O     3.890000000     1.468000000     4.538000000
H     3.096000000     1.963000000     4.740000000
H     3.595000000     0.772000000     3.950000000
O     1.946000000     4.250000000    -2.779000000
H     1.694000000     4.796000000    -3.524000000
H     1.389000000     3.475000000    -2.852000000
O    -3.676000000     3.653000000     0.024000000
H    -4.006000000     3.121000000     0.748000000
H    -3.824000000     4.556000000     0.304000000
O     0.710000000    -3.562000000     4.791000000
H     0.091000000    -3.237000000     5.445000000
H     1.531000000    -3.671000000     5.272000000
O    -3.626000000     1.376000000     4.748000000
H    -3.597000000     0.575000000     4.224000000
H    -4.164000000     1.147000000     5.506000000
O    -0.369000000     2.910000000    -4.394000000
H     0.294000000     2.275000000    -4.123000000
H    -0.942000000     2.997000000    -3.632000000
O    -6.148000000     2.702000000    -1.503000000
H    -6.125000000     3.583000000    -1.131000000
H    -6.189000000     2.121000000    -0.743000000
O     2.019000000    -2.192000000    -7.499000000
H     2.493000000    -1.979000000    -6.695000000
H     2.451000000    -2.979000000    -7.831000000
O    -2.250000000     3.956000000    -2.201000000
H    -2.912000000     3.826000000    -1.522000000
H    -2.590000000     4.676000000    -2.733000000
O    -6.183000000    -0.544000000    -1.769000000
H    -6.143000000    -1.448000000    -1.456000000
H    -6.316000000    -0.023000000    -0.978000000
O    -4.358000000    -1.254000000     3.550000000
H    -4.348000000    -2.196000000     3.376000000
H    -5.288000000    -1.030000000     3.599000000
O    -0.187000000     5.584000000    -1.345000000
H    -0.210000000     6.205000000    -2.073000000
H    -0.625000000     4.803000000    -1.682000000
O    -1.680000000    -1.303000000    -6.262000000
H    -1.912000000    -1.372000000    -5.336000000
H    -2.434000000    -1.667000000    -6.726000000
O     4.028000000     2.923000000    -1.205000000
H     3.411000000     2.949000000    -1.937000000
H     3.606000000     3.439000000    -0.518000000
O     4.393000000     0.270000000    -0.586000000
H     3.722000000    -0.071000000    -1.178000000
H     4.565000000     1.156000000    -0.904000000
O    -6.038000000     0.828000000     0.549000000
H    -5.237000000     1.099000000     0.998000000
H    -6.295000000     0.017000000     0.988000000
O    -0.523000000    -3.921000000    -3.555000000
H    -0.835000000    -4.525000000    -4.229000000
H    -1.233000000    -3.288000000    -3.454000000
O     3.004000000     0.090000000     2.391000000
H     2.060000000     0.234000000     2.328000000
H     3.311000000     0.118000000     1.485000000
O    -3.065000000    -3.594000000     3.350000000
H    -2.279000000    -3.730000000     2.821000000
H    -2.931000000    -4.141000000     4.123000000
O    -4.992000000     1.739000000    -3.853000000
H    -4.829000000     0.808000000    -3.702000000
H    -5.039000000     2.119000000    -2.976000000
O     0.028000000     4.496000000    -6.731000000
H    -0.845000000     4.640000000    -7.097000000
H    -0.118000000     3.905000000    -5.992000000
O     3.642000000    -3.476000000    -1.240000000
H     4.584000000    -3.560000000    -1.389000000
H     3.568000000    -2.853000000    -0.517000000
O     4.196000000     1.891000000    -4.541000000
H     3.815000000     1.244000000    -3.948000000
H     3.445000000     2.261000000    -5.007000000
