144
-2799.29353
O     1.776000000     1.967000000     2.290000000
H     2.134000000     2.374000000     3.079000000
H     1.271000000     1.221000000     2.613000000
O     0.647000000    -5.903000000    -0.790000000
H     1.087000000    -6.391000000    -1.486000000
H     0.719000000    -4.986000000    -1.058000000
O     0.470000000     5.305000000    -6.267000000
H     0.339000000     4.402000000    -5.975000000
H     0.116000000     5.323000000    -7.156000000
O    -3.775000000    -2.222000000     0.615000000
H    -4.630000000    -1.846000000     0.406000000
H    -3.145000000    -1.604000000     0.243000000
O     3.508000000    -2.716000000     6.274000000
H     3.301000000    -3.586000000     6.615000000
H     2.657000000    -2.290000000     6.174000000
O    -0.940000000    -6.205000000     1.138000000
H    -1.662000000    -6.072000000     0.525000000
H    -0.153000000    -6.014000000     0.627000000
O    -1.780000000    -3.433000000    -3.647000000
H    -2.566000000    -3.919000000    -3.399000000
H    -1.780000000    -2.668000000    -3.071000000
O    -2.380000000    -2.658000000     5.511000000
H    -2.480000000    -3.173000000     4.711000000
H    -3.274000000    -2.414000000     5.752000000
O     0.265000000     2.577000000    -5.775000000
H     0.220000000     2.428000000    -4.831000000
H     0.799000000     1.855000000    -6.107000000
O     0.527000000    -1.591000000    -7.047000000
H     0.564000000    -2.395000000    -6.528000000
H    -0.339000000    -1.228000000    -6.864000000
O    -0.069000000     2.367000000     4.933000000
H    -0.350000000     1.480000000     5.158000000
H    -0.884000000     2.846000000     4.784000000
O    -0.176000000    -6.293000000     3.995000000
H    -0.635000000    -6.343000000     3.156000000
H    -0.802000000    -6.637000000     4.632000000
O    -3.097000000     3.149000000     5.407000000
H    -3.847000000     3.742000000     5.379000000
H    -3.400000000     2.358000000     4.960000000
O     4.610000000    -2.082000000     3.884000000
H     4.086000000    -2.316000000     4.651000000
H     4.423000000    -2.771000000     3.247000000
O    -5.888000000     1.033000000     2.414000000
H    -5.053000000     0.888000000     2.858000000
H    -6.028000000     1.978000000     2.469000000
O     2.079000000     0.329000000    -6.005000000
H     1.826000000     0.145000000    -5.100000000
H     1.594000000    -0.312000000    -6.525000000
O     3.535000000    -4.074000000    -0.325000000
H     3.418000000    -4.745000000    -0.997000000
H     4.450000000    -3.807000000    -0.409000000
O    -1.459000000    -0.022000000     5.742000000
H    -1.558000000    -0.970000000     5.653000000
H    -1.636000000     0.152000000     6.666000000
O    -2.511000000    -0.757000000    -7.320000000
H    -2.274000000    -0.423000000    -6.454000000
H    -2.716000000    -1.680000000    -7.172000000
O     2.759000000    -2.893000000    -3.487000000
H     3.307000000    -2.424000000    -2.857000000
H     2.193000000    -3.445000000    -2.948000000
O     2.025000000     4.876000000     0.711000000
H     1.103000000     4.641000000     0.606000000
H     2.459000000     4.052000000     0.933000000
O     4.149000000     0.217000000     2.755000000
H     4.292000000    -0.632000000     3.173000000
H     3.860000000     0.002000000     1.869000000
O     3.309000000     4.442000000    -2.094000000
H     2.869000000     4.077000000    -1.325000000
H     3.340000000     3.716000000    -2.718000000
O    -4.670000000     2.443000000    -1.033000000
H    -5.304000000     1.815000000    -0.688000000
H    -4.490000000     3.030000000    -0.298000000
O     4.149000000    -1.684000000    -6.375000000
H     4.898000000    -1.703000000    -5.780000000
H     3.536000000    -1.072000000    -5.969000000
O     1.394000000    -3.563000000     3.782000000
H     1.321000000    -3.068000000     4.599000000
H     0.897000000    -4.365000000     3.943000000
O    -3.722000000     0.869000000     4.074000000
H    -4.156000000     0.020000000     3.992000000
H    -2.931000000     0.686000000     4.581000000
O    -1.359000000     4.218000000    -2.546000000
H    -0.853000000     3.449000000    -2.806000000
H    -2.255000000     4.017000000    -2.813000000
O     4.171000000     1.819000000    -6.300000000
H     3.487000000     1.153000000    -6.237000000
H     4.957000000     1.333000000    -6.548000000
O    -3.936000000     3.599000000    -3.232000000
H    -4.367000000     3.076000000    -2.556000000
H    -4.648000000     3.878000000    -3.808000000
O    -0.428000000     4.406000000     0.116000000
H    -0.761000000     4.410000000    -0.781000000
H    -0.988000000     3.780000000     0.577000000
O    -2.158000000    -1.125000000    -1.902000000
H    -2.672000000    -0.593000000    -2.509000000
H    -1.893000000    -0.515000000    -1.214000000
O    -4.758000000    -1.668000000     3.820000000
H    -4.246000000    -2.426000000     3.538000000
H    -5.657000000    -1.879000000     3.566000000
O    -3.264000000     4.974000000     0.651000000
H    -3.014000000     5.346000000     1.497000000
H    -3.894000000     5.599000000     0.292000000
O    -1.899000000     0.115000000    -5.004000000
H    -2.522000000     0.304000000    -4.303000000
H    -1.125000000     0.634000000    -4.784000000
O     3.219000000     2.352000000     0.145000000
H     3.137000000     1.772000000    -0.612000000
H     2.612000000     1.989000000     0.791000000
O     5.140000000    -0.822000000    -2.792000000
H     5.452000000    -1.706000000    -2.981000000
H     5.935000000    -0.289000000    -2.761000000
O     0.973000000    -2.085000000     6.083000000
H     0.647000000    -2.299000000     6.958000000
H     0.593000000    -1.229000000     5.889000000
O    -0.411000000     7.146000000     0.786000000
H    -0.575000000     6.217000000     0.623000000
H    -0.630000000     7.577000000    -0.041000000
O     0.470000000    -3.585000000    -2.255000000
H     0.443000000    -2.633000000    -2.346000000
H    -0.200000000    -3.902000000    -2.861000000
O     4.315000000    -1.133000000     0.233000000
H     3.949000000    -1.996000000     0.038000000
H     4.791000000    -0.890000000    -0.561000000
O     0.992000000     6.535000000    -2.920000000
H     1.262000000     5.660000000    -2.639000000
H     0.494000000     6.385000000    -3.723000000
O    -3.268000000    -3.586000000     2.916000000
H    -3.276000000    -4.497000000     2.623000000
H    -3.263000000    -3.075000000     2.107000000
O    -3.877000000     0.586000000    -3.097000000
H    -4.153000000     1.340000000    -2.576000000
H    -4.633000000     0.386000000    -3.649000000
O    -1.648000000     2.549000000    -7.625000000
H    -2.332000000     3.075000000    -7.211000000
H    -0.979000000     2.450000000    -6.947000000
O     3.536000000    -4.648000000     2.374000000
H     3.595000000    -4.385000000     1.456000000
H     2.731000000    -4.237000000     2.690000000
O     3.823000000     2.451000000    -3.623000000
H     3.000000000     1.997000000    -3.445000000
H     4.158000000     2.037000000    -4.419000000
O    -1.742000000     6.856000000    -1.734000000
H    -1.637000000     5.914000000    -1.870000000
H    -1.043000000     7.252000000    -2.255000000
