144
-2787.73707
O     2.110000000     1.914000000     1.117000000
H     1.998000000     0.964000000     1.117000000
H     1.536000000     2.223000000     1.817000000
O    -2.586000000    -0.606000000     8.126000000
H    -3.129000000    -1.101000000     7.512000000
H    -1.924000000    -0.187000000     7.577000000
O     0.882000000     5.253000000    -6.351000000
H     1.467000000     4.653000000    -6.813000000
H     0.844000000     4.910000000    -5.458000000
O    -0.992000000    -4.606000000     1.272000000
H    -1.590000000    -5.030000000     1.886000000
H    -1.565000000    -4.136000000     0.665000000
O    -0.453000000    -4.583000000    -2.850000000
H    -1.242000000    -4.616000000    -2.310000000
H    -0.294000000    -3.648000000    -2.984000000
O    -0.497000000    -2.335000000     6.587000000
H    -1.164000000    -1.772000000     6.193000000
H    -0.807000000    -3.225000000     6.419000000
O     3.505000000     1.513000000    -5.091000000
H     2.963000000     1.230000000    -4.354000000
H     3.296000000     0.895000000    -5.791000000
O     0.844000000     2.679000000     5.266000000
H     0.557000000     2.983000000     4.405000000
H     0.864000000     3.470000000     5.805000000
O    -3.116000000     3.292000000     3.463000000
H    -3.571000000     2.460000000     3.335000000
H    -3.161000000     3.723000000     2.610000000
O    -6.989000000    -0.525000000    -0.419000000
H    -6.328000000     0.164000000    -0.365000000
H    -7.239000000    -0.690000000     0.491000000
O     3.860000000    -1.853000000    -3.788000000
H     3.485000000    -1.051000000    -3.425000000
H     3.170000000    -2.208000000    -4.348000000
O     3.712000000    -4.882000000     0.147000000
H     2.767000000    -5.032000000     0.100000000
H     3.974000000    -5.262000000     0.985000000
O    -1.164000000     0.604000000     6.068000000
H    -0.338000000     0.582000000     5.585000000
H    -1.080000000     1.359000000     6.650000000
O    -2.092000000    -2.739000000    -6.274000000
H    -1.812000000    -2.389000000    -5.428000000
H    -1.712000000    -3.616000000    -6.308000000
O     3.075000000    -4.330000000    -2.601000000
H     3.584000000    -3.565000000    -2.868000000
H     3.293000000    -4.452000000    -1.677000000
O     5.255000000    -1.160000000     3.112000000
H     4.692000000    -1.484000000     3.816000000
H     4.862000000    -1.508000000     2.312000000
O     2.653000000     2.752000000    -1.367000000
H     2.231000000     2.294000000    -0.641000000
H     2.595000000     2.141000000    -2.102000000
O    -4.945000000     1.468000000    -0.966000000
H    -5.544000000     2.055000000    -0.503000000
H    -4.571000000     2.008000000    -1.662000000
O     2.231000000    -2.134000000     7.344000000
H     1.614000000    -2.574000000     6.759000000
H     2.464000000    -1.328000000     6.883000000
O    -4.048000000    -1.960000000     6.123000000
H    -3.521000000    -2.409000000     5.462000000
H    -4.199000000    -1.089000000     5.757000000
O    -1.284000000     2.982000000    -4.661000000
H    -0.864000000     2.377000000    -4.049000000
H    -2.012000000     2.483000000    -5.030000000
O    -3.223000000     1.456000000    -5.712000000
H    -3.753000000     0.759000000    -5.323000000
H    -3.153000000     1.216000000    -6.636000000
O    -4.804000000    -0.288000000    -4.633000000
H    -5.716000000    -0.102000000    -4.855000000
H    -4.853000000    -0.777000000    -3.811000000
O     0.121000000     5.915000000    -3.136000000
H     0.919000000     5.727000000    -3.631000000
H    -0.341000000     5.077000000    -3.101000000
O    -1.606000000    -2.662000000    -0.628000000
H    -2.218000000    -1.938000000    -0.762000000
H    -0.740000000    -2.261000000    -0.700000000
O     2.126000000     0.731000000     6.487000000
H     2.010000000     0.943000000     7.413000000
H     1.650000000     1.419000000     6.022000000
O    -2.586000000    -3.541000000     4.662000000
H    -2.228000000    -4.411000000     4.834000000
H    -2.549000000    -3.451000000     3.709000000
O    -0.030000000     3.415000000     2.409000000
H    -0.912000000     3.440000000     2.780000000
H    -0.038000000     4.085000000     1.725000000
O    -2.786000000     4.595000000     0.939000000
H    -2.054000000     5.111000000     0.602000000
H    -3.494000000     4.747000000     0.313000000
O    -1.496000000    -1.551000000    -3.715000000
H    -2.125000000    -1.622000000    -2.998000000
H    -0.987000000    -0.766000000    -3.511000000
O     3.379000000    -0.376000000    -7.412000000
H     3.497000000    -1.103000000    -6.800000000
H     2.469000000    -0.452000000    -7.701000000
O     0.978000000    -0.288000000    -8.665000000
H     0.161000000    -0.727000000    -8.901000000
H     0.713000000     0.396000000    -8.050000000
O    -2.741000000     5.243000000    -5.267000000
H    -2.817000000     5.087000000    -6.208000000
H    -2.239000000     4.496000000    -4.940000000
O     2.044000000     3.185000000    -7.699000000
H     1.788000000     2.436000000    -7.162000000
H     1.354000000     3.254000000    -8.359000000
O    -1.507000000     4.678000000     5.099000000
H    -1.971000000     4.748000000     5.933000000
H    -2.064000000     4.115000000     4.561000000
O     4.721000000     1.035000000     0.507000000
H     3.920000000     1.559000000     0.486000000
H     4.725000000     0.570000000    -0.329000000
O     5.693000000    -1.203000000    -1.108000000
H     6.582000000    -1.058000000    -0.785000000
H     5.784000000    -1.227000000    -2.060000000
O    -0.966000000     6.092000000    -0.444000000
H    -0.637000000     6.095000000    -1.343000000
H    -0.574000000     6.867000000    -0.043000000
O    -3.632000000    -4.707000000     2.069000000
H    -3.932000000    -4.705000000     2.978000000
H    -3.755000000    -5.610000000     1.778000000
O     1.218000000    -4.904000000    -0.359000000
H     0.375000000    -4.733000000     0.059000000
H     0.997000000    -5.127000000    -1.263000000
O     4.516000000    -2.383000000     0.841000000
H     4.132000000    -3.143000000     0.402000000
H     4.750000000    -1.788000000     0.129000000
O     1.803000000     4.048000000    -3.925000000
H     2.309000000     4.272000000    -3.144000000
H     2.181000000     3.222000000    -4.227000000
O    -3.545000000    -0.906000000    -1.787000000
H    -3.842000000    -0.040000000    -1.506000000
H    -4.347000000    -1.422000000    -1.864000000
O    -4.430000000     0.668000000     5.297000000
H    -3.598000000     0.866000000     5.728000000
H    -5.057000000     1.268000000     5.700000000
O     0.523000000     1.609000000    -6.342000000
H     0.515000000     0.965000000    -5.634000000
H     0.003000000     2.340000000    -6.007000000
O     2.158000000    -4.439000000     4.169000000
H     1.426000000    -4.302000000     3.568000000
H     1.752000000    -4.780000000     4.966000000
O     4.909000000     4.152000000    -1.293000000
H     4.131000000     3.623000000    -1.468000000
H     4.691000000     5.019000000    -1.633000000
O     5.875000000     2.889000000    -5.394000000
H     5.193000000     2.225000000    -5.294000000
H     5.396000000     3.706000000    -5.535000000
