144
-2799.32382
O     4.686000000     6.694000000    -0.584000000
H     4.143000000     6.106000000    -0.058000000
H     4.095000000     7.403000000    -0.836000000
O    -1.114000000     7.289000000     1.973000000
H    -1.064000000     7.578000000     2.884000000
H    -1.315000000     8.085000000     1.480000000
O     4.552000000    -0.297000000     1.924000000
H     3.885000000     0.307000000     2.251000000
H     5.092000000    -0.494000000     2.689000000
O    -2.207000000     7.330000000    -1.340000000
H    -2.043000000     7.047000000    -0.440000000
H    -1.685000000     6.733000000    -1.877000000
O     3.041000000     0.210000000    -1.363000000
H     2.442000000     0.197000000    -0.616000000
H     2.802000000    -0.564000000    -1.874000000
O     2.964000000     1.254000000     3.869000000
H     3.133000000     0.894000000     4.739000000
H     2.180000000     1.792000000     3.980000000
O     4.757000000    -2.544000000    -0.299000000
H     3.982000000    -3.104000000    -0.341000000
H     4.610000000    -1.989000000     0.467000000
O    -0.487000000    -3.159000000     3.783000000
H     0.411000000    -3.481000000     3.860000000
H    -0.920000000    -3.792000000     3.210000000
O    -3.514000000     2.392000000     4.702000000
H    -3.118000000     1.994000000     3.927000000
H    -4.437000000     2.141000000     4.655000000
O    -0.583000000     1.166000000    -6.410000000
H     0.022000000     0.712000000    -5.825000000
H    -1.335000000     0.577000000    -6.482000000
O     1.723000000    -1.302000000     5.482000000
H     2.057000000    -0.633000000     6.078000000
H     2.014000000    -1.018000000     4.615000000
O     2.363000000     2.709000000    -3.541000000
H     3.172000000     2.464000000    -3.091000000
H     2.269000000     3.646000000    -3.373000000
O    -0.877000000    -6.358000000    -0.683000000
H    -0.491000000    -6.835000000     0.051000000
H    -0.597000000    -5.452000000    -0.554000000
O     0.637000000    -6.058000000     3.877000000
H     0.663000000    -6.989000000     4.095000000
H    -0.216000000    -5.761000000     4.194000000
O     2.560000000    -3.972000000     0.035000000
H     2.366000000    -3.991000000     0.972000000
H     1.704000000    -3.893000000    -0.385000000
O    -1.956000000    -4.255000000     1.722000000
H    -2.770000000    -3.791000000     1.528000000
H    -1.407000000    -4.107000000     0.951000000
O    -5.632000000     0.380000000    -2.783000000
H    -6.532000000     0.072000000    -2.889000000
H    -5.156000000    -0.015000000    -3.513000000
O     0.923000000     6.028000000     3.151000000
H     0.278000000     6.247000000     2.478000000
H     0.977000000     6.815000000     3.694000000
O     1.234000000     3.371000000     4.258000000
H     0.909000000     3.644000000     5.116000000
H     1.050000000     4.115000000     3.684000000
O    -2.560000000    -2.953000000    -3.642000000
H    -1.716000000    -3.096000000    -3.215000000
H    -2.623000000    -3.653000000    -4.291000000
O    -2.131000000    -0.693000000     2.535000000
H    -1.889000000    -1.589000000     2.772000000
H    -1.566000000    -0.481000000     1.792000000
O    -3.323000000    -5.772000000    -1.743000000
H    -2.476000000    -6.172000000    -1.546000000
H    -3.521000000    -5.238000000    -0.974000000
O     2.231000000    -2.177000000    -2.840000000
H     1.384000000    -2.537000000    -2.577000000
H     2.679000000    -2.907000000    -3.268000000
O    -0.193000000    -3.995000000    -6.264000000
H    -0.971000000    -3.567000000    -6.623000000
H    -0.325000000    -4.925000000    -6.446000000
O     1.077000000     0.338000000    -4.406000000
H     1.398000000     1.142000000    -3.999000000
H     1.220000000    -0.339000000    -3.745000000
O     2.318000000     5.551000000    -2.787000000
H     2.239000000     6.505000000    -2.805000000
H     2.354000000     5.331000000    -1.856000000
O     2.310000000    -4.169000000     2.976000000
H     3.073000000    -4.241000000     3.550000000
H     1.848000000    -5.000000000     3.088000000
O     2.522000000     4.993000000     0.167000000
H     2.916000000     4.121000000     0.212000000
H     1.657000000     4.885000000     0.564000000
O    -2.671000000     5.113000000     2.366000000
H    -2.639000000     4.620000000     3.185000000
H    -2.016000000     5.803000000     2.476000000
O     4.229000000     2.602000000    -1.295000000
H     3.920000000     1.696000000    -1.325000000
H     4.815000000     2.631000000    -0.539000000
O    -1.543000000     5.106000000    -2.948000000
H    -1.246000000     5.711000000    -3.627000000
H    -2.306000000     4.672000000    -3.331000000
O    -2.936000000    -8.334000000     0.876000000
H    -2.064000000    -7.954000000     0.773000000
H    -2.919000000    -8.742000000     1.742000000
O     0.839000000    -5.069000000    -3.702000000
H     0.635000000    -4.663000000    -4.545000000
H     0.500000000    -4.454000000    -3.052000000
O    -3.429000000    -6.389000000     2.485000000
H    -2.868000000    -5.651000000     2.244000000
H    -3.360000000    -6.993000000     1.746000000
O    -1.492000000    -0.454000000     5.178000000
H    -1.784000000    -0.327000000     4.275000000
H    -0.734000000    -1.034000000     5.104000000
O     3.582000000     3.419000000     6.090000000
H     3.096000000     3.421000000     5.265000000
H     3.542000000     4.326000000     6.393000000
O     3.776000000     4.913000000     2.997000000
H     2.820000000     4.954000000     2.991000000
H     4.036000000     5.481000000     3.722000000
O    -4.538000000     4.547000000     0.495000000
H    -5.229000000     4.218000000     1.069000000
H    -3.798000000     4.711000000     1.080000000
O     5.470000000     3.261000000     1.325000000
H     6.181000000     3.427000000     1.944000000
H     4.825000000     3.944000000     1.513000000
O    -2.872000000    -5.456000000    -4.884000000
H    -2.378000000    -6.132000000    -5.349000000
H    -3.322000000    -5.928000000    -4.183000000
O    -0.707000000    -7.563000000    -3.191000000
H    -0.547000000    -6.664000000    -3.478000000
H    -0.748000000    -7.506000000    -2.237000000
O     3.070000000    -5.985000000    -2.229000000
H     2.506000000    -5.730000000    -2.959000000
H     3.182000000    -5.181000000    -1.721000000
O    -0.287000000    -7.759000000     1.514000000
H    -0.013000000    -7.398000000     2.357000000
H     0.469000000    -8.261000000     1.211000000
O    -0.492000000     1.762000000     6.538000000
H    -1.220000000     2.382000000     6.510000000
H    -0.769000000     1.040000000     5.973000000
O    -4.012000000    -0.893000000    -4.849000000
H    -3.510000000    -0.951000000    -5.662000000
H    -3.593000000    -1.524000000    -4.264000000
O    -0.250000000     3.669000000    -5.414000000
H    -0.244000000     2.725000000    -5.572000000
H    -0.638000000     3.764000000    -4.544000000
O    -4.133000000    -3.609000000     0.081000000
H    -4.206000000    -3.005000000    -0.658000000
H    -4.989000000    -3.573000000     0.506000000
O    -4.802000000     0.144000000     2.711000000
H    -3.939000000    -0.106000000     2.381000000
H    -5.331000000    -0.650000000     2.621000000
