144
-2786.78610
O     1.436000000     5.454000000    -0.478000000
H     1.627000000     4.623000000    -0.914000000
H     2.212000000     5.991000000    -0.637000000
O     5.173000000     0.051000000     1.510000000
H     4.891000000    -0.344000000     0.686000000
H     4.705000000     0.886000000     1.549000000
O    -0.876000000     3.271000000    -4.532000000
H    -0.240000000     2.763000000    -4.028000000
H    -1.420000000     3.698000000    -3.871000000
O     0.383000000     7.002000000     3.258000000
H    -0.506000000     7.257000000     3.503000000
H     0.309000000     6.078000000     3.018000000
O    -2.004000000     5.437000000     2.347000000
H    -2.916000000     5.692000000     2.491000000
H    -1.890000000     4.648000000     2.877000000
O    -0.884000000    -6.371000000     2.196000000
H    -0.943000000    -7.318000000     2.067000000
H     0.003000000    -6.146000000     1.915000000
O     2.878000000    -8.178000000     0.272000000
H     3.706000000    -8.086000000     0.744000000
H     2.448000000    -7.329000000     0.377000000
O     0.062000000    -2.989000000     4.744000000
H     0.384000000    -3.482000000     5.499000000
H    -0.594000000    -3.562000000     4.346000000
O     2.690000000    -1.848000000     4.340000000
H     1.852000000    -2.220000000     4.066000000
H     2.456000000    -1.170000000     4.973000000
O    -2.929000000     1.020000000     1.715000000
H    -2.291000000     0.703000000     1.076000000
H    -3.030000000     0.295000000     2.332000000
O     0.991000000    -2.063000000    -3.675000000
H     1.656000000    -2.221000000    -3.005000000
H     0.158000000    -2.211000000    -3.226000000
O     5.586000000    -1.673000000     3.611000000
H     4.682000000    -1.664000000     3.923000000
H     5.553000000    -1.219000000     2.769000000
O    -4.101000000     2.842000000    -0.768000000
H    -4.953000000     3.278000000    -0.746000000
H    -4.187000000     2.116000000    -0.150000000
O     4.630000000    -1.515000000    -0.472000000
H     5.418000000    -1.684000000    -0.988000000
H     4.470000000    -2.334000000    -0.003000000
O     1.739000000    -5.792000000     1.096000000
H     2.152000000    -5.629000000     1.944000000
H     1.523000000    -4.921000000     0.763000000
O     1.528000000    -1.898000000    -6.458000000
H     1.714000000    -1.989000000    -5.523000000
H     0.652000000    -2.270000000    -6.565000000
O    -1.478000000     3.292000000     4.559000000
H    -1.388000000     2.340000000     4.578000000
H    -0.584000000     3.620000000     4.652000000
O    -0.592000000    -4.119000000    -6.870000000
H    -1.351000000    -4.164000000    -6.289000000
H    -0.517000000    -5.000000000    -7.235000000
O     3.968000000    -3.752000000     0.998000000
H     4.388000000    -4.603000000     0.878000000
H     3.455000000    -3.849000000     1.800000000
O     1.018000000     2.165000000    -2.431000000
H     0.864000000     1.961000000    -1.508000000
H     1.242000000     1.324000000    -2.829000000
O     3.756000000     2.390000000     1.289000000
H     2.917000000     2.399000000     1.748000000
H     4.255000000     3.104000000     1.685000000
O    -3.741000000    -0.865000000     3.389000000
H    -4.161000000    -1.011000000     4.237000000
H    -3.166000000    -1.621000000     3.273000000
O    -4.531000000    -3.713000000    -0.902000000
H    -4.513000000    -2.801000000    -1.190000000
H    -4.865000000    -3.675000000    -0.006000000
O    -3.986000000     4.415000000     5.075000000
H    -4.668000000     3.902000000     4.640000000
H    -3.170000000     3.972000000     4.845000000
O    -0.971000000    -5.680000000    -1.539000000
H    -1.018000000    -5.544000000    -0.593000000
H    -0.936000000    -4.797000000    -1.907000000
O    -4.636000000     2.049000000    -3.730000000
H    -4.725000000     1.794000000    -2.811000000
H    -4.486000000     2.994000000    -3.702000000
O     3.110000000     3.667000000    -2.776000000
H     2.419000000     3.005000000    -2.788000000
H     3.751000000     3.333000000    -2.148000000
O     3.974000000    -2.717000000    -3.935000000
H     3.648000000    -1.859000000    -3.662000000
H     3.925000000    -3.254000000    -3.145000000
O     0.408000000     0.537000000    -4.822000000
H     0.650000000    -0.328000000    -4.490000000
H    -0.442000000     0.403000000    -5.241000000
O    -3.043000000    -4.126000000    -5.372000000
H    -3.123000000    -4.023000000    -6.321000000
H    -3.542000000    -4.917000000    -5.174000000
O    -3.691000000    -5.940000000    -2.312000000
H    -4.153000000    -5.224000000    -1.876000000
H    -2.809000000    -5.918000000    -1.940000000
O    -2.110000000     4.276000000    -2.172000000
H    -1.837000000     4.802000000    -1.420000000
H    -2.675000000     3.599000000    -1.798000000
O     4.062000000     1.485000000     4.793000000
H     3.568000000     0.968000000     5.430000000
H     3.400000000     1.802000000     4.178000000
O     5.084000000     2.827000000    -1.232000000
H     5.671000000     3.566000000    -1.069000000
H     4.469000000     2.844000000    -0.499000000
O    -0.120000000     0.332000000     3.828000000
H     0.053000000    -0.357000000     3.186000000
H    -0.395000000    -0.138000000     4.615000000
O     4.766000000    -6.658000000    -2.536000000
H     4.286000000    -7.429000000    -2.837000000
H     4.228000000    -5.917000000    -2.815000000
O    -2.307000000    -2.119000000    -3.748000000
H    -2.567000000    -2.895000000    -4.244000000
H    -1.846000000    -2.465000000    -2.985000000
O     3.244000000    -5.266000000     3.259000000
H     3.294000000    -6.200000000     3.463000000
H     3.514000000    -4.829000000     4.067000000
O     1.931000000     2.358000000     3.406000000
H     1.667000000     2.968000000     4.094000000
H     1.397000000     1.579000000     3.558000000
O     1.106000000     4.245000000     5.110000000
H     1.036000000     3.839000000     5.974000000
H     1.831000000     4.864000000     5.194000000
O    -1.039000000     6.170000000    -0.253000000
H    -1.314000000     5.760000000     0.567000000
H    -0.109000000     5.957000000    -0.328000000
O     3.180000000    -0.293000000    -2.516000000
H     3.585000000    -0.384000000    -1.653000000
H     3.786000000     0.262000000    -3.007000000
O     1.233000000    -5.662000000    -3.237000000
H     0.659000000    -5.922000000    -2.517000000
H     1.604000000    -4.825000000    -2.958000000
O     3.126000000    -4.213000000    -1.824000000
H     3.748000000    -4.092000000    -1.107000000
H     2.274000000    -4.011000000    -1.438000000
O    -5.737000000     0.091000000     0.447000000
H    -5.128000000     0.054000000     1.184000000
H    -6.436000000     0.674000000     0.743000000
O    -3.496000000     0.056000000    -5.088000000
H    -3.923000000     0.634000000    -4.456000000
H    -2.982000000    -0.547000000    -4.552000000
O    -2.384000000    -3.163000000     3.019000000
H    -2.354000000    -3.676000000     3.827000000
H    -1.890000000    -3.685000000     2.386000000
O    -6.532000000    -1.235000000    -1.831000000
H    -7.208000000    -1.769000000    -1.414000000
H    -6.114000000    -0.770000000    -1.106000000
