144
-2801.97201
O    -4.063000000     5.598000000     0.205000000
H    -3.340000000     6.113000000     0.561000000
H    -4.031000000     4.773000000     0.689000000
O     3.386000000     4.916000000    -1.372000000
H     3.117000000     4.959000000    -2.290000000
H     4.189000000     5.435000000    -1.333000000
O     3.934000000    -0.260000000     3.760000000
H     3.600000000     0.611000000     3.549000000
H     4.883000000    -0.145000000     3.820000000
O     0.176000000     3.034000000    -3.341000000
H     0.598000000     2.187000000    -3.195000000
H    -0.574000000     3.034000000    -2.746000000
O     2.562000000     7.171000000     2.819000000
H     2.118000000     7.724000000     2.176000000
H     2.083000000     6.342000000     2.792000000
O     0.685000000     5.214000000     2.877000000
H     0.285000000     5.469000000     3.708000000
H     0.209000000     4.427000000     2.613000000
O    -3.541000000     1.082000000     2.758000000
H    -4.275000000     0.522000000     3.011000000
H    -2.812000000     0.476000000     2.624000000
O    -2.071000000     5.796000000     2.383000000
H    -1.978000000     4.901000000     2.708000000
H    -1.296000000     6.252000000     2.711000000
O     2.071000000    -6.607000000     3.192000000
H     2.758000000    -6.439000000     3.837000000
H     1.908000000    -5.754000000     2.788000000
O     1.890000000    -8.559000000     0.826000000
H     1.735000000    -8.251000000     1.719000000
H     1.568000000    -7.851000000     0.268000000
O     3.007000000    -2.797000000     4.123000000
H     3.701000000    -2.825000000     3.464000000
H     2.929000000    -1.871000000     4.350000000
O    -1.911000000    -1.123000000     2.285000000
H    -1.265000000    -0.806000000     1.654000000
H    -1.550000000    -1.951000000     2.602000000
O    -0.225000000    -2.544000000    -3.409000000
H     0.432000000    -2.089000000    -2.882000000
H    -0.903000000    -2.796000000    -2.781000000
O    -4.046000000     2.425000000     0.483000000
H    -4.913000000     2.258000000     0.113000000
H    -4.102000000     2.100000000     1.381000000
O    -6.782000000     1.222000000    -2.318000000
H    -6.476000000     0.321000000    -2.215000000
H    -6.290000000     1.558000000    -3.067000000
O     5.369000000    -3.971000000     2.247000000
H     5.262000000    -3.569000000     1.384000000
H     5.205000000    -4.902000000     2.099000000
O     1.803000000    -4.347000000     1.650000000
H     1.967000000    -3.659000000     2.294000000
H     0.962000000    -4.112000000     1.256000000
O     0.651000000    -3.388000000    -5.971000000
H     0.153000000    -3.237000000    -5.168000000
H     0.176000000    -4.088000000    -6.419000000
O    -0.946000000     3.192000000     5.744000000
H    -0.939000000     2.324000000     6.148000000
H    -0.027000000     3.462000000     5.742000000
O     0.985000000     0.448000000    -3.022000000
H     0.734000000     0.435000000    -2.099000000
H     1.705000000    -0.181000000    -3.084000000
O     4.203000000     2.726000000     1.648000000
H     4.029000000     3.667000000     1.619000000
H     3.956000000     2.464000000     2.535000000
O    -0.933000000    -3.708000000     3.106000000
H    -0.488000000    -4.023000000     3.893000000
H    -1.363000000    -4.484000000     2.747000000
O    -4.172000000    -3.184000000    -0.229000000
H    -3.267000000    -3.268000000    -0.530000000
H    -4.112000000    -2.656000000     0.567000000
O     6.822000000     2.789000000     1.702000000
H     7.021000000     3.711000000     1.866000000
H     5.886000000     2.777000000     1.504000000
O    -1.651000000     3.271000000     2.976000000
H    -2.159000000     2.501000000     2.722000000
H    -1.542000000     3.184000000     3.923000000
O     0.396000000    -6.482000000    -0.626000000
H    -0.356000000    -6.678000000    -1.186000000
H     0.368000000    -5.532000000    -0.513000000
O    -3.163000000    -0.914000000    -3.685000000
H    -3.979000000    -0.877000000    -3.186000000
H    -2.816000000    -0.023000000    -3.642000000
O     4.355000000     2.271000000    -4.035000000
H     4.381000000     1.713000000    -3.258000000
H     4.705000000     3.111000000    -3.738000000
O    -2.283000000    -5.934000000    -0.886000000
H    -3.217000000    -5.798000000    -1.043000000
H    -1.871000000    -5.116000000    -1.163000000
O    -2.162000000     3.954000000    -2.149000000
H    -1.635000000     4.727000000    -2.348000000
H    -2.653000000     4.194000000    -1.363000000
O     4.596000000     1.946000000    -0.787000000
H     3.859000000     2.405000000    -1.190000000
H     4.537000000     2.169000000     0.143000000
O    -3.147000000    -3.509000000    -3.688000000
H    -3.112000000    -2.555000000    -3.617000000
H    -2.916000000    -3.823000000    -2.814000000
O     3.466000000     2.382000000     4.516000000
H     3.660000000     1.740000000     5.199000000
H     3.050000000     3.108000000     4.982000000
O    -0.810000000     5.810000000    -3.956000000
H    -0.147000000     6.432000000    -3.654000000
H    -0.333000000     4.989000000    -4.071000000
O     4.619000000     5.527000000     2.219000000
H     3.991000000     6.196000000     2.491000000
H     5.295000000     5.544000000     2.897000000
O     0.979000000     5.841000000    -0.538000000
H     1.035000000     5.863000000     0.417000000
H     1.714000000     5.292000000    -0.809000000
O    -6.168000000    -4.525000000     1.245000000
H    -5.395000000    -4.097000000     0.876000000
H    -5.820000000    -5.283000000     1.715000000
O     3.127000000    -1.314000000    -2.351000000
H     3.998000000    -0.935000000    -2.233000000
H     3.063000000    -1.984000000    -1.671000000
O    -3.132000000     1.767000000    -4.039000000
H    -3.021000000     2.323000000    -3.268000000
H    -4.076000000     1.769000000    -4.201000000
O    -1.122000000    -6.080000000    -3.803000000
H    -1.426000000    -5.621000000    -4.586000000
H    -1.925000000    -6.322000000    -3.340000000
O     2.840000000    -3.700000000    -0.709000000
H     3.060000000    -4.091000000     0.136000000
H     1.887000000    -3.614000000    -0.693000000
O     3.110000000    -6.208000000    -2.487000000
H     2.652000000    -5.601000000    -1.906000000
H     4.037000000    -6.069000000    -2.297000000
O     0.927000000     7.735000000    -2.334000000
H     0.351000000     8.361000000    -1.896000000
H     0.941000000     6.974000000    -1.754000000
O    -4.128000000    -2.800000000     2.776000000
H    -3.230000000    -2.518000000     2.597000000
H    -4.614000000    -1.985000000     2.900000000
O    -5.906000000    -4.869000000    -3.397000000
H    -5.118000000    -5.393000000    -3.254000000
H    -6.278000000    -4.752000000    -2.523000000
O     2.271000000     4.970000000    -3.887000000
H     2.328000000     5.057000000    -4.839000000
H     1.595000000     4.306000000    -3.747000000
O    -2.040000000    -6.239000000     2.319000000
H    -1.621000000    -7.047000000     2.614000000
H    -1.897000000    -6.225000000     1.373000000
O    -5.348000000    -1.425000000    -2.111000000
H    -5.014000000    -2.024000000    -1.443000000
H    -6.021000000    -1.928000000    -2.569000000
