144
-2801.36842
O    -2.093000000     5.266000000     1.409000000
H    -2.074000000     5.523000000     2.331000000
H    -1.335000000     5.704000000     1.022000000
O     3.305000000     0.486000000     1.828000000
H     3.192000000     1.006000000     2.624000000
H     2.417000000     0.370000000     1.490000000
O    -3.456000000     5.434000000    -0.807000000
H    -2.790000000     5.263000000    -1.473000000
H    -2.958000000     5.592000000    -0.006000000
O    -2.836000000     1.325000000     5.085000000
H    -3.791000000     1.260000000     5.064000000
H    -2.531000000     0.471000000     4.779000000
O     2.770000000     2.532000000    -2.857000000
H     2.691000000     2.731000000    -1.924000000
H     3.714000000     2.485000000    -3.012000000
O    -0.553000000    -7.523000000     3.105000000
H    -1.452000000    -7.268000000     3.315000000
H    -0.646000000    -8.182000000     2.417000000
O     3.226000000     0.201000000     5.156000000
H     2.593000000     0.908000000     5.029000000
H     2.730000000    -0.487000000     5.601000000
O    -0.404000000     7.240000000     0.318000000
H     0.180000000     7.658000000     0.951000000
H     0.059000000     7.311000000    -0.517000000
O     3.857000000    -1.718000000     0.119000000
H     3.563000000    -2.580000000     0.414000000
H     3.552000000    -1.115000000     0.797000000
O     0.441000000    -4.172000000     5.419000000
H     0.398000000    -5.096000000     5.666000000
H     0.066000000    -4.141000000     4.539000000
O    -2.607000000    -1.073000000     3.398000000
H    -3.481000000    -1.358000000     3.663000000
H    -2.734000000    -0.689000000     2.530000000
O    -1.263000000    -0.712000000    -5.885000000
H    -0.521000000    -0.277000000    -5.464000000
H    -0.899000000    -1.525000000    -6.233000000
O     0.523000000     1.457000000    -4.776000000
H    -0.314000000     1.770000000    -4.435000000
H     1.160000000     1.696000000    -4.103000000
O    -5.178000000     3.503000000    -2.532000000
H    -4.801000000     3.797000000    -1.703000000
H    -5.706000000     2.739000000    -2.298000000
O     0.281000000    -6.523000000     0.216000000
H     0.511000000    -6.699000000     1.128000000
H     0.240000000    -5.569000000     0.158000000
O     3.301000000    -4.275000000     0.465000000
H     3.535000000    -4.746000000     1.264000000
H     2.347000000    -4.341000000     0.418000000
O    -3.100000000     0.300000000    -2.884000000
H    -4.055000000     0.237000000    -2.886000000
H    -2.873000000     0.478000000    -1.971000000
O    -0.853000000    -4.477000000     3.050000000
H    -1.765000000    -4.435000000     2.760000000
H    -0.344000000    -4.477000000     2.239000000
O    -2.020000000    -2.561000000    -2.637000000
H    -1.092000000    -2.658000000    -2.422000000
H    -2.173000000    -1.616000000    -2.616000000
O     2.831000000     4.329000000     3.010000000
H     3.050000000     5.039000000     3.613000000
H     3.577000000     3.731000000     3.063000000
O     1.523000000     2.313000000     4.314000000
H     0.637000000     2.524000000     4.611000000
H     1.844000000     3.125000000     3.922000000
O    -5.135000000     6.264000000     2.360000000
H    -4.267000000     5.905000000     2.548000000
H    -5.710000000     5.500000000     2.336000000
O    -1.971000000    -5.298000000    -1.502000000
H    -1.763000000    -4.392000000    -1.731000000
H    -1.842000000    -5.341000000    -0.554000000
O    -3.249000000    -0.480000000    -0.234000000
H    -3.447000000    -1.388000000    -0.461000000
H    -2.399000000    -0.522000000     0.204000000
O    -1.873000000     2.323000000    -3.907000000
H    -2.647000000     2.638000000    -4.373000000
H    -2.084000000     1.418000000    -3.676000000
O     4.199000000    -3.133000000    -2.550000000
H     4.081000000    -2.569000000    -1.786000000
H     3.889000000    -3.992000000    -2.263000000
O     3.277000000    -1.547000000    -4.633000000
H     3.237000000    -0.677000000    -4.237000000
H     3.483000000    -2.133000000    -3.905000000
O     4.025000000     5.287000000    -3.379000000
H     3.558000000     6.112000000    -3.511000000
H     3.358000000     4.683000000    -3.055000000
O     3.768000000    -6.153000000     2.394000000
H     4.483000000    -6.669000000     2.767000000
H     3.145000000    -6.805000000     2.072000000
O     1.356000000     5.621000000    -1.629000000
H     1.657000000     4.942000000    -1.025000000
H     0.444000000     5.393000000    -1.811000000
O    -4.363000000    -4.936000000    -3.230000000
H    -3.657000000    -5.557000000    -3.050000000
H    -4.842000000    -5.324000000    -3.962000000
O    -3.787000000     3.256000000     1.943000000
H    -3.600000000     3.121000000     2.872000000
H    -3.123000000     3.882000000     1.653000000
O     2.759000000     3.863000000    -0.170000000
H     2.329000000     3.914000000     0.684000000
H     3.686000000     3.744000000     0.036000000
O    -1.093000000     5.013000000    -2.782000000
H    -0.995000000     5.428000000    -3.639000000
H    -1.128000000     4.076000000    -2.972000000
O    -3.411000000    -7.733000000    -1.003000000
H    -3.147000000    -8.012000000    -0.126000000
H    -2.768000000    -7.067000000    -1.246000000
O     0.750000000    -5.470000000    -3.318000000
H     0.888000000    -4.784000000    -3.970000000
H     0.391000000    -5.011000000    -2.558000000
O    -0.373000000    -1.528000000     5.253000000
H    -0.940000000    -1.569000000     4.483000000
H     0.067000000    -2.378000000     5.272000000
O    -4.421000000     1.811000000    -0.233000000
H    -4.173000000     2.444000000     0.442000000
H    -3.838000000     1.066000000    -0.087000000
O    -0.850000000     3.279000000     4.929000000
H    -0.863000000     3.892000000     5.663000000
H    -1.618000000     2.724000000     5.066000000
O     4.254000000    -4.793000000    -4.826000000
H     4.014000000    -4.245000000    -4.078000000
H     3.488000000    -4.767000000    -5.398000000
O    -0.332000000    -7.702000000    -2.755000000
H     0.033000000    -7.047000000    -3.349000000
H    -0.619000000    -7.200000000    -1.992000000
O     3.121000000    -5.754000000    -1.908000000
H     2.213000000    -5.719000000    -2.207000000
H     3.066000000    -5.625000000    -0.961000000
O     3.060000000     7.412000000    -0.260000000
H     2.556000000     6.948000000    -0.929000000
H     2.430000000     7.583000000     0.440000000
O    -4.263000000    -3.069000000    -0.634000000
H    -3.863000000    -3.148000000    -1.500000000
H    -5.036000000    -3.632000000    -0.674000000
O     0.960000000    -0.059000000     7.045000000
H     1.419000000    -0.734000000     7.545000000
H     0.453000000    -0.545000000     6.395000000
O    -4.153000000    -1.852000000    -5.149000000
H    -4.466000000    -2.221000000    -4.323000000
H    -3.263000000    -1.556000000    -4.957000000
O     1.004000000     4.051000000    -5.806000000
H     0.313000000     3.737000000    -6.389000000
H     1.318000000     3.264000000    -5.360000000
O    -3.508000000    -4.287000000     2.009000000
H    -3.901000000    -3.788000000     2.725000000
H    -4.077000000    -4.117000000     1.258000000
