144
-2816.72479
O    -2.455000000     6.904000000     1.694000000
H    -2.125000000     7.779000000     1.895000000
H    -1.721000000     6.464000000     1.264000000
O     2.185000000    -0.147000000     1.949000000
H     1.382000000    -0.154000000     1.427000000
H     2.133000000     0.664000000     2.456000000
O    -4.098000000     5.198000000    -0.971000000
H    -3.452000000     5.721000000    -0.496000000
H    -3.967000000     4.306000000    -0.649000000
O    -4.544000000    -5.993000000     2.164000000
H    -3.817000000    -5.943000000     1.544000000
H    -5.314000000    -6.155000000     1.619000000
O     2.800000000     3.159000000    -3.073000000
H     3.144000000     3.874000000    -2.538000000
H     3.015000000     2.366000000    -2.581000000
O    -0.808000000    -8.155000000     1.552000000
H    -0.165000000    -8.267000000     2.252000000
H    -1.096000000    -9.045000000     1.348000000
O     0.780000000    -8.648000000    -0.421000000
H     0.267000000    -8.293000000     0.304000000
H     1.205000000    -7.884000000    -0.810000000
O     5.107000000    -0.804000000    -0.498000000
H     5.565000000    -0.356000000     0.213000000
H     4.661000000    -1.536000000    -0.073000000
O    -0.832000000    -2.040000000     5.075000000
H    -1.736000000    -2.055000000     5.390000000
H    -0.608000000    -2.961000000     4.948000000
O    -5.473000000    -0.531000000     3.593000000
H    -5.662000000    -0.089000000     2.765000000
H    -5.842000000    -1.407000000     3.486000000
O    -0.277000000     6.391000000    -0.394000000
H    -0.158000000     5.791000000    -1.131000000
H     0.511000000     6.276000000     0.138000000
O     1.724000000    -2.610000000     3.658000000
H     1.116000000    -3.077000000     3.085000000
H     2.239000000    -2.061000000     3.066000000
O     0.991000000     2.232000000    -5.142000000
H     0.132000000     2.199000000    -4.721000000
H     1.532000000     2.744000000    -4.542000000
O     5.044000000     0.214000000     2.292000000
H     5.043000000    -0.097000000     3.197000000
H     4.164000000     0.018000000     1.971000000
O    -2.027000000    -6.040000000     0.362000000
H    -1.581000000    -6.788000000     0.759000000
H    -1.527000000    -5.279000000     0.657000000
O     2.110000000    -4.924000000     1.295000000
H     2.246000000    -5.856000000     1.124000000
H     1.229000000    -4.746000000     0.965000000
O    -3.088000000    -3.321000000     2.148000000
H    -3.584000000    -3.138000000     1.350000000
H    -2.172000000    -3.316000000     1.867000000
O    -1.386000000    -0.822000000    -3.780000000
H    -0.979000000    -1.686000000    -3.713000000
H    -1.196000000    -0.402000000    -2.941000000
O     5.820000000     1.567000000    -3.542000000
H     5.261000000     1.450000000    -4.310000000
H     5.213000000     1.782000000    -2.834000000
O     2.251000000     6.558000000     1.210000000
H     2.687000000     7.403000000     1.315000000
H     2.509000000     6.057000000     1.983000000
O     1.229000000     2.263000000     3.571000000
H     0.459000000     1.709000000     3.695000000
H     0.932000000     3.142000000     3.804000000
O    -2.085000000    -5.661000000    -2.550000000
H    -2.218000000    -4.826000000    -3.000000000
H    -2.275000000    -5.471000000    -1.631000000
O    -3.110000000     0.462000000    -0.711000000
H    -3.473000000    -0.423000000    -0.754000000
H    -2.393000000     0.396000000    -0.081000000
O    -1.597000000     2.530000000    -4.182000000
H    -1.924000000     1.657000000    -4.402000000
H    -2.372000000     3.009000000    -3.890000000
O     3.386000000    -1.201000000    -3.474000000
H     3.686000000    -0.709000000    -2.710000000
H     2.969000000    -1.981000000    -3.107000000
O     3.085000000    -2.577000000    -6.163000000
H     3.048000000    -2.368000000    -5.230000000
H     2.585000000    -3.389000000    -6.247000000
O     3.961000000     1.588000000    -1.217000000
H     4.244000000     0.770000000    -0.808000000
H     4.353000000     2.274000000    -0.676000000
O     2.485000000     6.535000000    -3.542000000
H     2.763000000     6.212000000    -2.685000000
H     1.532000000     6.598000000    -3.477000000
O    -4.146000000     2.745000000     0.268000000
H    -3.817000000     1.946000000    -0.145000000
H    -3.572000000     2.880000000     1.021000000
O     3.174000000     5.435000000    -1.220000000
H     2.847000000     6.074000000    -0.586000000
H     3.500000000     4.712000000    -0.685000000
O    -0.152000000     4.989000000    -3.216000000
H    -0.220000000     5.264000000    -4.131000000
H    -1.008000000     4.611000000    -3.016000000
O    -6.148000000    -3.149000000     3.239000000
H    -5.217000000    -3.343000000     3.124000000
H    -6.540000000    -3.988000000     3.480000000
O    -0.008000000    -3.339000000    -3.523000000
H     0.560000000    -3.905000000    -4.046000000
H     0.271000000    -3.488000000    -2.620000000
O    -3.624000000    -4.713000000     4.317000000
H    -3.570000000    -3.888000000     3.835000000
H    -3.947000000    -5.346000000     3.675000000
O     1.688000000    -0.477000000     5.808000000
H     0.960000000    -0.940000000     5.393000000
H     1.998000000    -1.078000000     6.485000000
O     3.223000000     4.869000000     3.194000000
H     3.193000000     3.945000000     2.947000000
H     4.140000000     5.027000000     3.418000000
O    -2.783000000     5.005000000    -4.287000000
H    -3.207000000     5.863000000    -4.257000000
H    -1.931000000     5.172000000    -4.690000000
O     4.652000000     3.791000000     0.408000000
H     4.808000000     3.852000000     1.350000000
H     5.519000000     3.899000000     0.015000000
O    -6.488000000     1.295000000     1.255000000
H    -7.002000000     2.079000000     1.445000000
H    -5.608000000     1.625000000     1.070000000
O    -2.822000000     2.718000000     2.819000000
H    -3.166000000     3.166000000     3.592000000
H    -1.894000000     2.583000000     3.013000000
O     5.933000000    -2.975000000    -3.224000000
H     5.702000000    -2.475000000    -4.007000000
H     5.139000000    -2.964000000    -2.690000000
O     4.054000000    -3.054000000     0.997000000
H     3.373000000    -3.659000000     1.291000000
H     4.634000000    -2.960000000     1.752000000
O     0.822000000    -5.750000000    -2.125000000
H     0.067000000    -6.209000000    -2.494000000
H     0.441000000    -5.067000000    -1.574000000
O     3.144000000    -3.518000000    -1.755000000
H     2.421000000    -4.135000000    -1.868000000
H     3.272000000    -3.470000000    -0.808000000
O    -3.522000000    -2.908000000    -3.266000000
H    -3.169000000    -2.024000000    -3.370000000
H    -4.175000000    -2.988000000    -3.962000000
O    -1.032000000     0.703000000     4.197000000
H    -0.861000000    -0.225000000     4.034000000
H    -1.730000000     0.705000000     4.852000000
O    -4.290000000    -1.975000000    -0.583000000
H    -5.196000000    -1.708000000    -0.743000000
H    -4.031000000    -2.434000000    -1.382000000
O     0.306000000     5.075000000     4.631000000
H     0.915000000     5.110000000     5.368000000
H     0.608000000     5.762000000     4.037000000
