144
-2780.84554
O    -4.675000000     4.016000000    -0.448000000
H    -5.004000000     4.015000000     0.451000000
H    -4.809000000     3.118000000    -0.753000000
O    -1.565000000     5.586000000     0.734000000
H    -2.051000000     6.054000000     1.412000000
H    -1.916000000     4.695000000     0.759000000
O     1.313000000    -3.421000000    -2.480000000
H     0.918000000    -3.551000000    -1.618000000
H     0.577000000    -3.475000000    -3.090000000
O     3.121000000     0.516000000     4.986000000
H     2.525000000     1.251000000     5.132000000
H     2.928000000    -0.094000000     5.698000000
O     2.448000000     3.803000000     4.873000000
H     2.180000000     4.197000000     5.703000000
H     1.699000000     3.939000000     4.292000000
O     3.517000000    -3.985000000    -3.842000000
H     2.775000000    -3.847000000    -3.254000000
H     3.908000000    -4.807000000    -3.546000000
O     5.355000000    -3.223000000     3.789000000
H     4.470000000    -3.587000000     3.793000000
H     5.225000000    -2.277000000     3.866000000
O     3.246000000     1.500000000    -0.951000000
H     2.374000000     1.114000000    -0.861000000
H     3.841000000     0.829000000    -0.617000000
O    -1.463000000     4.608000000     4.944000000
H    -2.042000000     4.441000000     4.200000000
H    -1.026000000     3.771000000     5.100000000
O     5.097000000     6.153000000    -0.560000000
H     5.263000000     7.065000000    -0.801000000
H     4.158000000     6.121000000    -0.378000000
O     3.399000000    -6.275000000     4.084000000
H     2.684000000    -6.392000000     4.710000000
H     3.119000000    -5.544000000     3.534000000
O    -4.619000000    -0.027000000     3.142000000
H    -3.949000000     0.432000000     3.649000000
H    -4.131000000    -0.669000000     2.625000000
O     0.459000000    -6.022000000     2.367000000
H     0.179000000    -6.219000000     3.261000000
H     0.537000000    -5.069000000     2.344000000
O     2.353000000    -7.001000000    -3.786000000
H     2.012000000    -7.087000000    -2.896000000
H     2.853000000    -7.805000000    -3.929000000
O    -0.071000000    -0.188000000    -5.356000000
H     0.385000000     0.363000000    -5.993000000
H    -0.922000000     0.233000000    -5.241000000
O    -2.312000000     0.952000000    -5.120000000
H    -2.505000000     1.346000000    -4.270000000
H    -2.870000000     0.174000000    -5.156000000
O    -3.409000000     2.429000000    -3.051000000
H    -2.807000000     2.490000000    -2.310000000
H    -4.250000000     2.194000000    -2.658000000
O     2.346000000    -3.595000000     3.259000000
H     1.706000000    -3.566000000     2.548000000
H     2.076000000    -2.895000000     3.853000000
O    -2.992000000     4.758000000    -4.542000000
H    -2.393000000     5.110000000    -3.884000000
H    -3.308000000     3.938000000    -4.164000000
O     3.331000000     5.275000000     2.554000000
H     2.386000000     5.174000000     2.439000000
H     3.712000000     4.561000000     2.042000000
O    -3.108000000    -1.111000000     1.026000000
H    -3.661000000    -1.429000000     0.312000000
H    -2.232000000    -1.431000000     0.811000000
O    -1.426000000     5.141000000    -2.080000000
H    -0.498000000     5.334000000    -2.213000000
H    -1.538000000     5.146000000    -1.129000000
O    -2.325000000    -4.888000000    -1.613000000
H    -1.609000000    -4.633000000    -1.032000000
H    -2.629000000    -5.727000000    -1.265000000
O     3.804000000    -2.365000000     0.311000000
H     3.356000000    -1.709000000     0.845000000
H     4.139000000    -3.000000000     0.943000000
O     0.908000000    -4.449000000    -6.020000000
H     1.642000000    -4.327000000    -5.418000000
H     0.152000000    -4.096000000    -5.552000000
O    -4.932000000    -1.095000000    -3.981000000
H    -4.218000000    -1.710000000    -4.150000000
H    -5.625000000    -1.632000000    -3.598000000
O     3.284000000    -5.923000000    -0.701000000
H     2.367000000    -5.703000000    -0.863000000
H     3.261000000    -6.496000000     0.066000000
O     3.827000000     0.021000000     1.759000000
H     3.509000000     0.674000000     2.382000000
H     4.502000000    -0.459000000     2.238000000
O    -3.346000000    -3.467000000    -3.688000000
H    -3.017000000    -4.215000000    -3.191000000
H    -4.013000000    -3.838000000    -4.266000000
O    -3.245000000     3.774000000     3.004000000
H    -3.127000000     3.191000000     2.255000000
H    -4.193000000     3.821000000     3.125000000
O    -1.448000000    -3.005000000     3.610000000
H    -0.820000000    -3.378000000     2.991000000
H    -1.111000000    -3.253000000     4.471000000
O     0.708000000    -7.416000000    -0.207000000
H     0.100000000    -7.958000000     0.295000000
H     0.743000000    -6.588000000     0.273000000
O    -1.871000000    -0.365000000     7.101000000
H    -1.357000000    -0.423000000     6.295000000
H    -2.766000000    -0.569000000     6.829000000
O    -3.420000000    -4.267000000     1.785000000
H    -2.951000000    -3.723000000     2.418000000
H    -3.010000000    -5.129000000     1.860000000
O     4.632000000     3.667000000     0.537000000
H     4.963000000     4.438000000     0.077000000
H     4.267000000     3.114000000    -0.153000000
O    -4.456000000    -3.160000000    -0.561000000
H    -3.942000000    -3.571000000     0.133000000
H    -4.153000000    -3.581000000    -1.365000000
O    -0.695000000    -2.813000000    -4.558000000
H    -1.628000000    -2.857000000    -4.350000000
H    -0.521000000    -1.880000000    -4.682000000
O     0.996000000    -6.040000000     5.584000000
H     0.120000000    -6.304000000     5.867000000
H     1.084000000    -5.137000000     5.889000000
O     2.319000000     3.192000000    -3.263000000
H     2.655000000     2.814000000    -4.075000000
H     2.658000000     2.620000000    -2.574000000
O    -0.220000000     2.157000000     5.488000000
H     0.138000000     1.858000000     6.325000000
H    -0.615000000     1.374000000     5.104000000
O     1.264000000     5.393000000    -2.036000000
H     1.611000000     4.585000000    -2.412000000
H     1.430000000     6.059000000    -2.704000000
O     2.600000000     6.673000000    -0.055000000
H     1.918000000     6.203000000    -0.534000000
H     2.235000000     6.797000000     0.821000000
O     1.968000000    -0.800000000    -3.511000000
H     1.567000000    -1.487000000    -2.978000000
H     1.351000000    -0.664000000    -4.230000000
O    -3.275000000     1.716000000     1.234000000
H    -4.089000000     1.635000000     0.737000000
H    -2.906000000     0.833000000     1.234000000
O    -1.137000000    -0.268000000     4.264000000
H    -1.512000000    -1.105000000     3.992000000
H    -0.249000000    -0.484000000     4.548000000
O     0.678000000     5.744000000     1.910000000
H     0.054000000     5.608000000     1.197000000
H     0.260000000     6.397000000     2.471000000
O     0.106000000     4.337000000    -5.500000000
H     0.732000000     4.818000000    -4.958000000
H    -0.588000000     4.081000000    -4.893000000
O     1.232000000    -2.082000000     5.404000000
H     2.032000000    -2.154000000     5.925000000
H     0.557000000    -2.494000000     5.945000000
