144
-2818.11691
O     2.235000000     3.090000000    -2.298000000
H     2.831000000     2.342000000    -2.331000000
H     2.283000000     3.395000000    -1.392000000
O    -3.032000000     3.940000000     1.837000000
H    -3.470000000     3.391000000     1.187000000
H    -2.702000000     3.322000000     2.489000000
O     4.696000000    -1.190000000    -3.998000000
H     3.959000000    -1.406000000    -3.427000000
H     4.767000000    -1.938000000    -4.591000000
O    -3.983000000     5.471000000     4.570000000
H    -3.477000000     4.663000000     4.660000000
H    -3.323000000     6.157000000     4.472000000
O    -2.324000000    -1.590000000     6.512000000
H    -2.385000000    -1.233000000     7.398000000
H    -1.430000000    -1.928000000     6.451000000
O     0.440000000     0.724000000    -4.858000000
H     1.352000000     0.866000000    -5.113000000
H     0.446000000    -0.120000000    -4.408000000
O     2.900000000     2.963000000     3.214000000
H     3.305000000     3.550000000     3.853000000
H     2.748000000     2.151000000     3.697000000
O     4.920000000     1.524000000    -3.298000000
H     5.818000000     1.590000000    -2.972000000
H     4.858000000     0.635000000    -3.647000000
O     3.487000000    -0.295000000     2.727000000
H     4.031000000     0.334000000     3.201000000
H     3.366000000    -1.018000000     3.342000000
O     0.195000000     4.637000000     4.453000000
H     1.053000000     4.719000000     4.870000000
H     0.373000000     4.735000000     3.518000000
O    -4.595000000    -3.866000000    -4.700000000
H    -4.434000000    -3.029000000    -4.265000000
H    -4.918000000    -3.626000000    -5.569000000
O     4.917000000    -3.517000000    -5.626000000
H     5.074000000    -3.850000000    -6.510000000
H     3.972000000    -3.372000000    -5.590000000
O     0.579000000     5.015000000     1.583000000
H     1.476000000     4.990000000     1.250000000
H     0.064000000     4.553000000     0.922000000
O    -3.051000000     1.562000000    -3.382000000
H    -2.110000000     1.385000000    -3.402000000
H    -3.203000000     2.135000000    -4.133000000
O     1.467000000    -2.461000000    -7.977000000
H     1.091000000    -3.341000000    -8.025000000
H     2.094000000    -2.508000000    -7.255000000
O     4.905000000    -2.564000000     1.374000000
H     4.726000000    -2.569000000     0.434000000
H     4.563000000    -1.724000000     1.679000000
O    -2.236000000     3.127000000     5.000000000
H    -1.898000000     2.487000000     5.627000000
H    -1.465000000     3.627000000     4.730000000
O     5.804000000    -4.650000000    -1.723000000
H     5.873000000    -5.341000000    -1.065000000
H     4.924000000    -4.292000000    -1.604000000
O     2.692000000     1.487000000     5.668000000
H     2.019000000     1.616000000     6.337000000
H     2.628000000     0.559000000     5.441000000
O     2.159000000    -2.805000000    -5.336000000
H     1.399000000    -3.367000000    -5.481000000
H     1.900000000    -2.232000000    -4.614000000
O     0.710000000    -1.469000000     3.692000000
H     0.905000000    -1.029000000     2.865000000
H     1.318000000    -2.208000000     3.720000000
O    -1.146000000    -2.910000000    -4.287000000
H    -0.355000000    -2.473000000    -3.973000000
H    -1.628000000    -3.135000000    -3.491000000
O     5.123000000    -1.506000000    -1.230000000
H     5.560000000    -1.884000000    -1.994000000
H     4.201000000    -1.457000000    -1.482000000
O     3.111000000     1.478000000    -5.568000000
H     3.544000000     0.719000000    -5.960000000
H     3.661000000     1.708000000    -4.819000000
O    -1.566000000     1.690000000     7.146000000
H    -2.221000000     1.043000000     7.407000000
H    -0.731000000     1.225000000     7.210000000
O     0.905000000    -5.599000000    -5.565000000
H     0.094000000    -5.645000000    -5.058000000
H     1.499000000    -6.205000000    -5.121000000
O    -0.246000000     3.471000000    -3.309000000
H    -0.195000000     2.712000000    -3.891000000
H     0.632000000     3.543000000    -2.934000000
O     3.269000000     3.649000000     0.321000000
H     3.185000000     2.817000000     0.787000000
H     3.781000000     4.202000000     0.911000000
O    -1.639000000    -1.309000000    -6.432000000
H    -2.091000000    -1.992000000    -6.928000000
H    -1.548000000    -1.673000000    -5.551000000
O    -4.723000000     1.953000000     5.550000000
H    -4.992000000     2.137000000     6.450000000
H    -3.837000000     2.311000000     5.487000000
O     3.050000000    -4.273000000    -1.741000000
H     2.661000000    -4.334000000    -0.869000000
H     2.999000000    -3.343000000    -1.961000000
O    -2.827000000    -3.727000000    -1.853000000
H    -3.602000000    -3.291000000    -1.500000000
H    -3.079000000    -4.648000000    -1.921000000
O    -3.611000000    -0.422000000     4.594000000
H    -3.136000000    -0.800000000     5.334000000
H    -3.913000000     0.429000000     4.912000000
O     1.721000000    -4.347000000     0.787000000
H     0.830000000    -4.038000000     0.624000000
H     1.617000000    -5.271000000     1.014000000
O    -3.878000000    -1.679000000     2.192000000
H    -3.490000000    -1.182000000     2.912000000
H    -4.579000000    -2.186000000     2.603000000
O    -6.161000000     3.341000000     2.925000000
H    -5.981000000     2.436000000     2.671000000
H    -5.666000000     3.465000000     3.735000000
O     3.775000000    -6.654000000    -3.398000000
H     3.747000000    -5.729000000    -3.152000000
H     3.458000000    -6.672000000    -4.301000000
O    -1.164000000     3.973000000    -0.605000000
H    -1.940000000     3.421000000    -0.705000000
H    -0.714000000     3.908000000    -1.447000000
O    -5.080000000     0.397000000     1.283000000
H    -5.991000000     0.114000000     1.203000000
H    -4.610000000    -0.388000000     1.566000000
O    -5.809000000     0.379000000    -2.213000000
H    -6.419000000     0.903000000    -2.732000000
H    -6.278000000     0.202000000    -1.397000000
O    -1.163000000     1.301000000    -6.824000000
H    -1.617000000     0.458000000    -6.838000000
H    -0.894000000     1.412000000    -5.912000000
O    -4.238000000    -1.285000000    -3.753000000
H    -4.648000000    -1.219000000    -2.890000000
H    -3.613000000    -0.560000000    -3.777000000
O    -2.242000000     6.909000000     1.565000000
H    -2.136000000     5.959000000     1.502000000
H    -2.324000000     7.201000000     0.657000000
O    -4.962000000    -2.246000000    -0.456000000
H    -5.212000000    -1.325000000    -0.526000000
H    -4.467000000    -2.299000000     0.361000000
O     0.141000000    -2.280000000     6.174000000
H     0.338000000    -2.082000000     5.258000000
H     0.873000000    -2.824000000     6.463000000
O    -3.794000000     2.301000000    -0.662000000
H    -3.877000000     2.012000000    -1.571000000
H    -4.241000000     1.625000000    -0.153000000
O    -0.750000000    -3.503000000     0.056000000
H    -1.467000000    -3.771000000    -0.520000000
H    -0.652000000    -2.565000000    -0.106000000
O     6.609000000     0.231000000    -0.016000000
H     5.957000000    -0.412000000    -0.293000000
H     6.589000000     0.902000000    -0.698000000
