144
-2822.07357
O     0.506000000     5.386000000    -2.742000000
H    -0.414000000     5.324000000    -2.486000000
H     0.486000000     5.441000000    -3.697000000
O     0.867000000     5.012000000     0.154000000
H    -0.024000000     4.669000000     0.223000000
H     1.072000000     4.959000000    -0.779000000
O     2.944000000     1.854000000    -6.112000000
H     2.817000000     2.223000000    -5.239000000
H     3.004000000     0.910000000    -5.966000000
O    -0.039000000    -6.835000000     2.632000000
H     0.201000000    -5.915000000     2.743000000
H     0.667000000    -7.320000000     3.060000000
O    -0.877000000    -0.624000000     6.005000000
H    -1.055000000     0.249000000     5.657000000
H    -0.054000000    -0.884000000     5.591000000
O    -0.855000000     2.961000000    -4.395000000
H    -0.395000000     3.762000000    -4.645000000
H    -0.185000000     2.420000000    -3.977000000
O    -0.975000000     2.653000000     0.582000000
H    -0.393000000     1.951000000     0.290000000
H    -0.914000000     2.632000000     1.537000000
O     2.912000000     3.829000000    -4.080000000
H     2.511000000     3.284000000    -3.403000000
H     2.172000000     4.208000000    -4.554000000
O    -4.089000000    -3.721000000     0.797000000
H    -4.389000000    -3.753000000     1.705000000
H    -3.557000000    -4.509000000     0.692000000
O     1.423000000     1.591000000     4.426000000
H     1.627000000     2.119000000     3.654000000
H     2.271000000     1.433000000     4.840000000
O     6.671000000     2.713000000    -2.771000000
H     7.152000000     3.539000000    -2.833000000
H     5.805000000     2.914000000    -3.126000000
O     2.409000000    -0.959000000    -6.349000000
H     1.711000000    -0.982000000    -7.003000000
H     3.083000000    -1.542000000    -6.697000000
O    -5.189000000    -4.533000000    -2.064000000
H    -6.049000000    -4.125000000    -1.966000000
H    -4.786000000    -4.456000000    -1.199000000
O     0.663000000     3.256000000    -7.162000000
H     1.437000000     2.703000000    -7.055000000
H     0.563000000     3.347000000    -8.110000000
O    -2.278000000    -3.100000000     5.260000000
H    -1.818000000    -2.278000000     5.092000000
H    -1.582000000    -3.732000000     5.438000000
O    -2.335000000     2.932000000    -6.899000000
H    -1.663000000     2.572000000    -6.320000000
H    -1.844000000     3.326000000    -7.620000000
O     3.383000000    -0.803000000     3.858000000
H     3.415000000    -0.207000000     4.605000000
H     4.299000000    -1.021000000     3.685000000
O    -1.256000000     2.514000000     3.533000000
H    -1.243000000     3.450000000     3.731000000
H    -0.601000000     2.136000000     4.121000000
O     0.282000000     5.145000000    -5.501000000
H    -0.107000000     5.787000000    -6.095000000
H     0.471000000     4.388000000    -6.056000000
O     3.203000000    -2.302000000     1.410000000
H     3.011000000    -1.496000000     1.890000000
H     2.343000000    -2.669000000     1.204000000
O     1.073000000    -2.028000000     4.533000000
H     1.376000000    -2.092000000     5.439000000
H     1.782000000    -1.578000000     4.074000000
O     3.864000000     3.633000000    -0.361000000
H     4.655000000     3.128000000    -0.170000000
H     3.467000000     3.182000000    -1.106000000
O     0.375000000    -2.330000000    -3.425000000
H    -0.267000000    -2.891000000    -2.991000000
H    -0.147000000    -1.636000000    -3.828000000
O     6.551000000     1.818000000     2.696000000
H     6.855000000     0.912000000     2.748000000
H     6.301000000     1.935000000     1.780000000
O     2.570000000     3.682000000     2.148000000
H     1.941000000     4.377000000     1.953000000
H     3.072000000     3.579000000     1.340000000
O    -4.387000000     1.176000000     6.173000000
H    -3.690000000     1.478000000     6.755000000
H    -4.180000000     1.570000000     5.326000000
O    -2.342000000    -0.925000000    -5.085000000
H    -1.596000000    -0.326000000    -5.071000000
H    -2.618000000    -0.943000000    -6.001000000
O     4.728000000     0.117000000    -1.465000000
H     3.935000000    -0.400000000    -1.608000000
H     4.420000000     1.022000000    -1.423000000
O    -2.054000000    -3.613000000    -2.401000000
H    -2.848000000    -3.163000000    -2.691000000
H    -2.360000000    -4.236000000    -1.743000000
O    -5.858000000    -0.173000000     2.441000000
H    -6.088000000    -0.953000000     2.946000000
H    -5.130000000     0.218000000     2.924000000
O     0.242000000    -0.014000000    -5.273000000
H     0.511000000     0.595000000    -4.585000000
H     1.033000000    -0.515000000    -5.472000000
O     7.163000000    -0.821000000    -1.012000000
H     7.722000000    -0.101000000    -1.302000000
H     6.271000000    -0.509000000    -1.169000000
O    -3.803000000     1.452000000     3.383000000
H    -2.900000000     1.390000000     3.071000000
H    -4.149000000     2.238000000     2.959000000
O     2.783000000    -1.728000000    -2.136000000
H     1.901000000    -1.835000000    -2.494000000
H     2.658000000    -1.739000000    -1.187000000
O    -2.584000000    -6.007000000     3.509000000
H    -2.509000000    -5.970000000     2.555000000
H    -1.745000000    -6.364000000     3.801000000
O    -4.774000000    -0.894000000     0.023000000
H    -5.169000000    -0.465000000     0.782000000
H    -4.783000000    -1.826000000     0.243000000
O    -5.419000000     1.106000000    -1.575000000
H    -5.148000000     0.285000000    -1.164000000
H    -4.791000000     1.753000000    -1.255000000
O    -3.318000000     3.750000000    -3.764000000
H    -3.334000000     3.015000000    -3.150000000
H    -2.568000000     3.572000000    -4.331000000
O     5.423000000     4.243000000    -4.630000000
H     5.559000000     3.699000000    -5.405000000
H     4.484000000     4.183000000    -4.456000000
O     6.704000000     0.255000000    -3.852000000
H     6.028000000     0.431000000    -3.197000000
H     7.113000000     1.107000000    -4.008000000
O     0.504000000    -4.252000000     3.083000000
H     0.769000000    -3.994000000     2.200000000
H     0.529000000    -3.439000000     3.588000000
O    -3.706000000    -1.477000000    -3.021000000
H    -3.096000000    -1.112000000    -3.661000000
H    -3.725000000    -0.832000000    -2.313000000
O     3.847000000     4.079000000     4.636000000
H     3.789000000     4.961000000     4.269000000
H     3.693000000     3.498000000     3.891000000
O     6.424000000     2.216000000    -0.055000000
H     6.869000000     3.047000000    -0.221000000
H     6.815000000     1.606000000    -0.680000000
O    -0.252000000     2.100000000     6.665000000
H     0.177000000     1.644000000     7.389000000
H     0.367000000     2.032000000     5.939000000
O    -4.050000000    -3.627000000    -4.500000000
H    -4.521000000    -4.031000000    -3.771000000
H    -3.984000000    -2.703000000    -4.260000000
O    -2.959000000     1.915000000    -1.120000000
H    -2.081000000     1.534000000    -1.162000000
H    -2.898000000     2.582000000    -0.437000000
O     0.797000000    -3.364000000     0.190000000
H     0.165000000    -2.768000000    -0.213000000
H     0.508000000    -4.236000000    -0.078000000
