144
-2818.77882
O     1.193000000     4.666000000    -1.289000000
H     2.062000000     4.291000000    -1.147000000
H     1.083000000     5.294000000    -0.574000000
O     3.343000000    -0.576000000    -4.329000000
H     3.982000000    -0.344000000    -5.003000000
H     2.833000000     0.223000000    -4.197000000
O    -3.503000000    -5.329000000     3.653000000
H    -3.598000000    -4.416000000     3.926000000
H    -3.159000000    -5.776000000     4.427000000
O    -4.062000000    -1.329000000     6.736000000
H    -3.879000000    -0.419000000     6.968000000
H    -3.262000000    -1.634000000     6.309000000
O     0.157000000     3.473000000    -5.369000000
H     0.452000000     4.150000000    -4.761000000
H     0.879000000     2.845000000    -5.396000000
O    -0.686000000     1.961000000     3.755000000
H    -1.418000000     2.377000000     3.299000000
H     0.079000000     2.478000000     3.502000000
O     5.030000000     3.348000000    -1.924000000
H     5.192000000     3.329000000    -2.868000000
H     4.106000000     3.118000000    -1.835000000
O     2.717000000     0.920000000     4.859000000
H     3.491000000     0.562000000     4.425000000
H     3.033000000     1.203000000     5.717000000
O     1.431000000    -1.049000000    -7.302000000
H     2.372000000    -1.186000000    -7.191000000
H     1.188000000    -1.629000000    -8.023000000
O    -1.628000000    -4.132000000    -3.830000000
H    -1.798000000    -3.190000000    -3.810000000
H    -0.712000000    -4.204000000    -4.098000000
O    -1.854000000     3.336000000    -3.207000000
H    -1.395000000     3.023000000    -3.986000000
H    -1.536000000     4.230000000    -3.085000000
O    -4.914000000    -3.396000000     4.905000000
H    -5.218000000    -2.588000000     4.493000000
H    -4.822000000    -3.173000000     5.832000000
O     2.285000000    -2.672000000     0.980000000
H     2.060000000    -1.789000000     0.687000000
H     1.935000000    -3.247000000     0.300000000
O     4.781000000     6.370000000    -4.211000000
H     3.926000000     6.275000000    -4.632000000
H     4.708000000     5.859000000    -3.405000000
O    -2.313000000     0.549000000    -6.622000000
H    -1.996000000     1.096000000    -7.341000000
H    -1.519000000     0.192000000    -6.225000000
O     1.340000000    -5.064000000     3.863000000
H     2.124000000    -5.387000000     3.420000000
H     0.651000000    -5.118000000     3.201000000
O    -1.340000000     3.213000000    -0.293000000
H    -1.444000000     3.302000000    -1.241000000
H    -0.411000000     3.014000000    -0.172000000
O     1.095000000    -4.257000000    -0.990000000
H     0.993000000    -5.199000000    -1.126000000
H     0.849000000    -3.866000000    -1.829000000
O    -2.671000000     3.436000000     2.061000000
H    -2.173000000     3.457000000     1.244000000
H    -3.580000000     3.320000000     1.784000000
O    -0.206000000     0.207000000     5.639000000
H    -0.316000000     0.632000000     4.789000000
H     0.737000000     0.240000000     5.803000000
O     3.028000000     3.323000000     0.769000000
H     3.725000000     3.359000000     1.424000000
H     3.270000000     2.592000000     0.201000000
O     0.760000000    -2.505000000    -3.068000000
H     0.946000000    -1.805000000    -2.443000000
H     0.594000000    -2.051000000    -3.894000000
O     3.627000000     3.072000000    -4.414000000
H     3.597000000     2.706000000    -5.298000000
H     3.278000000     2.377000000    -3.856000000
O     5.096000000     0.553000000     3.442000000
H     5.024000000     0.748000000     2.508000000
H     5.609000000    -0.255000000     3.479000000
O     1.782000000     3.084000000     3.396000000
H     2.202000000     2.284000000     3.711000000
H     2.023000000     3.133000000     2.471000000
O    -1.704000000     2.058000000     6.956000000
H    -1.178000000     1.388000000     6.518000000
H    -1.086000000     2.766000000     7.138000000
O    -2.475000000    -1.567000000    -4.091000000
H    -3.166000000    -1.457000000    -3.437000000
H    -1.890000000    -0.823000000    -3.949000000
O     5.430000000     0.214000000    -2.100000000
H     5.272000000    -0.358000000    -2.850000000
H     4.872000000     0.976000000    -2.257000000
O    -4.495000000    -3.894000000    -0.316000000
H    -5.111000000    -3.162000000    -0.275000000
H    -4.251000000    -4.054000000     0.596000000
O    -7.345000000     0.644000000     0.918000000
H    -6.493000000     0.778000000     1.334000000
H    -7.896000000     0.284000000     1.613000000
O     4.785000000    -3.508000000     1.612000000
H     4.034000000    -3.126000000     1.158000000
H     5.503000000    -2.899000000     1.442000000
O     0.121000000    -0.442000000    -4.787000000
H     0.814000000     0.068000000    -4.368000000
H     0.571000000    -0.948000000    -5.464000000
O     0.379000000    -3.856000000     6.297000000
H     0.870000000    -3.069000000     6.533000000
H     0.816000000    -4.184000000     5.512000000
O     3.186000000    -3.179000000    -3.879000000
H     3.445000000    -2.277000000    -4.066000000
H     2.349000000    -3.099000000    -3.422000000
O    -6.551000000    -1.947000000    -0.304000000
H    -6.817000000    -1.176000000     0.197000000
H    -7.364000000    -2.430000000    -0.450000000
O    -5.742000000     1.005000000     3.365000000
H    -6.461000000     0.857000000     3.980000000
H    -4.978000000     1.155000000     3.922000000
O    -5.549000000     3.639000000     2.009000000
H    -6.104000000     3.848000000     1.258000000
H    -5.746000000     2.723000000     2.205000000
O    -3.896000000     2.391000000    -5.705000000
H    -4.152000000     2.729000000    -6.564000000
H    -3.235000000     1.726000000    -5.897000000
O    -1.768000000    -2.074000000     5.654000000
H    -1.276000000    -2.808000000     6.021000000
H    -1.097000000    -1.453000000     5.372000000
O     5.230000000     0.633000000     0.900000000
H     5.457000000    -0.285000000     0.753000000
H     5.648000000     1.102000000     0.178000000
O    -5.998000000     1.966000000    -2.268000000
H    -5.071000000     1.740000000    -2.347000000
H    -6.436000000     1.404000000    -2.907000000
O    -4.989000000    -1.183000000    -2.610000000
H    -5.660000000    -1.278000000    -3.285000000
H    -5.412000000    -1.484000000    -1.807000000
O     3.126000000     1.676000000    -6.638000000
H     2.274000000     1.343000000    -6.922000000
H     3.747000000     1.315000000    -7.271000000
O     0.487000000     5.750000000    -3.657000000
H     0.993000000     5.056000000    -3.235000000
H     0.561000000     6.496000000    -3.062000000
O    -3.581000000     1.622000000     5.164000000
H    -2.901000000     1.109000000     4.728000000
H    -3.124000000     2.073000000     5.873000000
O    -3.032000000    -5.949000000    -1.659000000
H    -3.574000000    -5.275000000    -1.248000000
H    -2.434000000    -5.462000000    -2.225000000
O    -0.359000000    -5.394000000     1.591000000
H    -0.594000000    -6.260000000     1.256000000
H    -0.528000000    -4.801000000     0.860000000
O     6.956000000     3.252000000     0.186000000
H     6.755000000     4.129000000     0.515000000
H     6.474000000     3.190000000    -0.639000000
