144
-2801.75213
O    -2.275000000     3.103000000     3.934000000
H    -1.620000000     3.104000000     3.236000000
H    -3.106000000     2.963000000     3.482000000
O     4.085000000    -5.893000000    -0.038000000
H     3.596000000    -6.334000000     0.656000000
H     3.481000000    -5.871000000    -0.781000000
O     1.238000000    -0.670000000     2.638000000
H     1.581000000    -1.319000000     2.023000000
H     0.401000000    -0.400000000     2.260000000
O     1.973000000    -5.590000000    -1.883000000
H     2.344000000    -4.767000000    -2.200000000
H     1.469000000    -5.927000000    -2.624000000
O    -2.575000000     4.582000000     1.285000000
H    -3.093000000     3.886000000     0.881000000
H    -1.779000000     4.144000000     1.587000000
O    -2.348000000    -4.503000000     4.276000000
H    -1.492000000    -4.110000000     4.443000000
H    -2.558000000    -4.248000000     3.378000000
O     3.052000000     0.795000000     3.743000000
H     2.422000000     1.329000000     4.227000000
H     2.513000000     0.177000000     3.249000000
O     2.868000000    -3.348000000    -3.089000000
H     3.407000000    -2.559000000    -3.044000000
H     3.296000000    -3.893000000    -3.749000000
O     3.033000000     5.947000000    -1.934000000
H     2.201000000     5.552000000    -2.195000000
H     3.466000000     5.271000000    -1.414000000
O     4.610000000    -1.960000000     1.125000000
H     3.864000000    -2.424000000     1.504000000
H     5.114000000    -1.659000000     1.881000000
O    -0.638000000     6.916000000    -2.457000000
H    -0.177000000     6.102000000    -2.255000000
H    -1.356000000     6.948000000    -1.825000000
O    -2.135000000    -5.193000000    -5.060000000
H    -2.016000000    -4.269000000    -4.843000000
H    -2.334000000    -5.612000000    -4.223000000
O     1.079000000     5.972000000     4.230000000
H     1.788000000     5.441000000     3.867000000
H     0.529000000     5.347000000     4.703000000
O    -1.561000000    -7.373000000    -1.500000000
H    -0.764000000    -7.364000000    -2.030000000
H    -2.142000000    -6.747000000    -1.931000000
O    -3.367000000     1.003000000    -2.218000000
H    -2.721000000     0.396000000    -1.858000000
H    -3.336000000     1.760000000    -1.633000000
O     2.701000000     4.590000000     2.777000000
H     3.510000000     4.084000000     2.702000000
H     2.105000000     4.183000000     2.149000000
O    -1.388000000    -2.748000000    -4.177000000
H    -0.508000000    -2.402000000    -4.027000000
H    -1.927000000    -1.972000000    -4.331000000
O     1.181000000    -0.279000000    -5.581000000
H     0.735000000     0.523000000    -5.309000000
H     2.081000000    -0.169000000    -5.272000000
O    -4.277000000     0.740000000     2.166000000
H    -3.998000000     0.139000000     1.475000000
H    -4.034000000     0.299000000     2.980000000
O     4.599000000     2.416000000     2.185000000
H     5.446000000     1.975000000     2.126000000
H     4.044000000     1.804000000     2.668000000
O    -0.789000000     2.519000000    -3.084000000
H    -1.369000000     3.220000000    -3.379000000
H    -1.371000000     1.774000000    -2.933000000
O     3.961000000    -0.457000000    -5.392000000
H     4.167000000     0.467000000    -5.245000000
H     4.288000000    -0.902000000    -4.610000000
O    -0.643000000     4.327000000     6.091000000
H    -1.288000000     3.875000000     5.549000000
H    -1.023000000     5.193000000     6.244000000
O     0.639000000     6.398000000     1.341000000
H     0.878000000     5.541000000     0.987000000
H     1.299000000     6.574000000     2.011000000
O    -5.212000000    -4.362000000    -0.730000000
H    -6.080000000    -4.613000000    -0.414000000
H    -5.314000000    -4.293000000    -1.680000000
O    -3.627000000    -4.025000000     1.660000000
H    -4.402000000    -3.694000000     2.114000000
H    -3.935000000    -4.226000000     0.777000000
O    -6.422000000     2.351000000     2.656000000
H    -5.663000000     1.775000000     2.568000000
H    -7.128000000     1.888000000     2.205000000
O    -4.032000000    -0.792000000     4.281000000
H    -4.640000000    -1.516000000     4.133000000
H    -4.453000000    -0.261000000     4.957000000
O    -2.609000000    -6.878000000     0.948000000
H    -2.076000000    -7.049000000     0.172000000
H    -3.022000000    -6.032000000     0.773000000
O     3.434000000     3.711000000    -0.418000000
H     4.034000000     3.222000000     0.145000000
H     2.592000000     3.667000000     0.035000000
O     4.159000000    -0.934000000    -2.848000000
H     4.055000000    -0.126000000    -2.345000000
H     4.862000000    -1.405000000    -2.400000000
O     4.276000000     2.120000000    -3.066000000
H     4.441000000     2.663000000    -2.294000000
H     3.406000000     2.385000000    -3.363000000
O    -4.105000000     2.604000000     0.111000000
H    -4.929000000     2.842000000    -0.314000000
H    -4.316000000     1.822000000     0.621000000
O     3.855000000     6.953000000     2.097000000
H     3.559000000     6.228000000     2.647000000
H     4.808000000     6.866000000     2.077000000
O     0.511000000     4.502000000    -1.854000000
H     0.761000000     4.109000000    -1.018000000
H     0.033000000     3.809000000    -2.311000000
O     0.810000000    -5.350000000     0.818000000
H    -0.075000000    -5.677000000     0.982000000
H     1.042000000    -5.707000000    -0.039000000
O    -4.415000000    -0.872000000    -0.177000000
H    -4.874000000    -0.647000000    -0.987000000
H    -5.042000000    -1.403000000     0.313000000
O     0.358000000    -2.576000000    -6.874000000
H     0.560000000    -3.411000000    -6.452000000
H     0.696000000    -1.915000000    -6.270000000
O     0.653000000    -5.329000000    -5.597000000
H     0.533000000    -5.763000000    -6.441000000
H    -0.188000000    -5.432000000    -5.152000000
O    -2.727000000     6.691000000    -0.566000000
H    -3.661000000     6.897000000    -0.537000000
H    -2.652000000     5.856000000    -0.104000000
O    -1.724000000     6.713000000     2.657000000
H    -2.087000000     5.970000000     2.175000000
H    -0.781000000     6.665000000     2.499000000
O    -1.437000000     0.097000000     5.276000000
H    -1.737000000    -0.007000000     4.373000000
H    -2.146000000     0.570000000     5.712000000
O    -3.625000000    -6.100000000    -2.969000000
H    -4.026000000    -5.232000000    -2.922000000
H    -4.363000000    -6.700000000    -3.077000000
O     0.903000000     2.462000000     4.655000000
H     0.358000000     3.186000000     4.964000000
H     0.479000000     2.171000000     3.848000000
O     1.930000000     2.665000000    -4.298000000
H     1.202000000     2.699000000    -3.677000000
H     1.618000000     3.154000000    -5.060000000
O    -2.555000000    -0.402000000    -4.853000000
H    -2.666000000     0.149000000    -5.628000000
H    -2.993000000     0.081000000    -4.152000000
O     0.056000000    -2.799000000     4.457000000
H     0.199000000    -1.949000000     4.874000000
H     0.601000000    -2.775000000     3.671000000
O     2.215000000    -3.661000000     2.480000000
H     1.521000000    -4.021000000     1.927000000
H     2.818000000    -4.392000000     2.614000000
