144
-2782.01807
O     1.453000000     4.220000000     1.416000000
H     2.089000000     3.748000000     0.878000000
H     1.948000000     4.494000000     2.188000000
O    -5.874000000    -3.957000000     2.715000000
H    -5.982000000    -4.213000000     3.631000000
H    -5.656000000    -3.026000000     2.751000000
O    -3.874000000    -5.812000000     2.344000000
H    -4.588000000    -5.190000000     2.482000000
H    -4.290000000    -6.565000000     1.925000000
O    -4.221000000    -2.608000000    -0.456000000
H    -4.010000000    -2.138000000     0.351000000
H    -3.552000000    -2.326000000    -1.080000000
O    -0.823000000     3.985000000     0.050000000
H    -1.450000000     4.597000000     0.434000000
H    -0.046000000     4.060000000     0.602000000
O    -0.585000000    -0.524000000     5.434000000
H    -0.599000000    -0.008000000     6.239000000
H     0.338000000    -0.549000000     5.180000000
O     4.010000000     0.681000000     3.167000000
H     4.440000000     0.472000000     2.338000000
H     4.214000000     1.604000000     3.317000000
O    -1.465000000    -5.994000000     4.293000000
H    -1.823000000    -6.003000000     3.406000000
H    -1.511000000    -5.076000000     4.561000000
O     4.676000000     0.677000000     0.220000000
H     3.999000000     1.353000000     0.194000000
H     5.442000000     1.090000000    -0.178000000
O    -2.855000000    -3.981000000    -4.903000000
H    -2.143000000    -3.410000000    -5.194000000
H    -2.432000000    -4.822000000    -4.728000000
O    -2.736000000     2.654000000    -4.093000000
H    -3.643000000     2.517000000    -4.366000000
H    -2.767000000     2.631000000    -3.137000000
O     2.303000000     3.543000000     5.480000000
H     2.538000000     2.728000000     5.923000000
H     2.696000000     3.465000000     4.611000000
O     6.326000000     3.921000000     1.977000000
H     6.844000000     3.296000000     1.470000000
H     6.975000000     4.434000000     2.459000000
O     2.902000000    -1.314000000    -4.827000000
H     2.577000000    -2.003000000    -4.247000000
H     3.298000000    -0.672000000    -4.238000000
O    -5.371000000    -5.462000000    -0.293000000
H    -5.134000000    -5.732000000    -1.180000000
H    -4.910000000    -4.633000000    -0.163000000
O    -2.436000000     1.982000000    -1.163000000
H    -1.650000000     1.443000000    -1.081000000
H    -2.307000000     2.692000000    -0.533000000
O     1.054000000    -4.080000000     1.712000000
H     0.348000000    -4.403000000     1.152000000
H     1.520000000    -3.445000000     1.168000000
O    -0.433000000     4.011000000    -2.735000000
H    -0.645000000     4.156000000    -1.813000000
H     0.124000000     3.232000000    -2.733000000
O     5.106000000     2.987000000    -4.909000000
H     5.721000000     2.762000000    -4.210000000
H     5.148000000     3.942000000    -4.966000000
O     2.302000000     5.734000000    -1.858000000
H     2.589000000     4.821000000    -1.851000000
H     1.982000000     5.892000000    -0.969000000
O    -6.202000000     0.861000000     0.316000000
H    -6.033000000     1.724000000    -0.062000000
H    -6.164000000     0.261000000    -0.429000000
O     2.238000000    -3.256000000     4.006000000
H     2.088000000    -2.312000000     3.957000000
H     1.824000000    -3.605000000     3.216000000
O    -1.730000000     2.902000000     3.203000000
H    -2.666000000     2.771000000     3.353000000
H    -1.669000000     3.160000000     2.283000000
O    -6.198000000    -1.012000000    -1.514000000
H    -5.656000000    -1.782000000    -1.339000000
H    -6.436000000    -1.091000000    -2.438000000
O    -0.256000000     1.313000000    -5.094000000
H     0.413000000     1.920000000    -4.777000000
H    -1.073000000     1.809000000    -5.040000000
O    -1.398000000    -5.553000000     0.738000000
H    -2.288000000    -5.215000000     0.838000000
H    -1.515000000    -6.436000000     0.387000000
O     5.081000000     3.781000000    -2.015000000
H     4.496000000     3.834000000    -1.259000000
H     5.182000000     4.689000000    -2.302000000
O    -0.047000000     4.762000000     4.756000000
H    -0.347000000     4.327000000     3.957000000
H     0.723000000     4.261000000     5.026000000
O     1.865000000     2.997000000    -4.696000000
H     2.769000000     2.887000000    -4.991000000
H     1.904000000     2.863000000    -3.749000000
O     1.637000000    -2.412000000    -0.324000000
H     1.212000000    -1.556000000    -0.289000000
H     1.934000000    -2.496000000    -1.230000000
O    -4.931000000    -1.364000000     2.697000000
H    -5.022000000    -0.803000000     1.926000000
H    -4.241000000    -0.949000000     3.215000000
O     7.430000000     2.802000000    -3.176000000
H     6.691000000     3.168000000    -2.690000000
H     8.202000000     3.209000000    -2.782000000
O     3.856000000     0.811000000    -3.565000000
H     3.264000000     1.182000000    -2.911000000
H     4.084000000     1.551000000    -4.128000000
O    -1.381000000    -1.177000000    -4.710000000
H    -2.183000000    -1.328000000    -4.209000000
H    -1.541000000    -0.356000000    -5.176000000
O    -5.324000000     2.865000000    -1.469000000
H    -4.532000000     2.364000000    -1.271000000
H    -5.512000000     2.664000000    -2.386000000
O     0.840000000     6.807000000     0.820000000
H     1.356000000     7.530000000     1.176000000
H     1.274000000     6.019000000     1.146000000
O    -2.666000000    -0.232000000     3.543000000
H    -1.957000000    -0.238000000     4.186000000
H    -2.344000000     0.330000000     2.838000000
O     2.120000000    -0.276000000     4.833000000
H     2.464000000     0.055000000     5.662000000
H     2.675000000     0.127000000     4.165000000
O     0.285000000    -3.423000000    -5.318000000
H    -0.267000000    -2.643000000    -5.259000000
H     1.083000000    -3.119000000    -5.752000000
O     4.385000000     3.510000000     3.673000000
H     4.999000000     3.816000000     4.341000000
H     4.865000000     3.598000000     2.849000000
O     1.088000000    -0.374000000    -6.792000000
H     1.720000000    -0.789000000    -6.205000000
H     0.524000000     0.139000000    -6.213000000
O     0.787000000    -5.202000000    -3.373000000
H     1.328000000    -4.588000000    -2.877000000
H     0.592000000    -4.743000000    -4.191000000
O    -1.314000000     4.361000000    -6.014000000
H    -2.207000000     4.553000000    -5.729000000
H    -0.910000000     3.930000000    -5.261000000
O     5.652000000    -1.971000000     0.284000000
H     5.383000000    -1.067000000     0.119000000
H     5.353000000    -2.454000000    -0.486000000
O    -3.703000000    -1.745000000    -3.137000000
H    -3.819000000    -2.604000000    -3.544000000
H    -4.447000000    -1.230000000    -3.449000000
O     1.430000000     6.676000000    -4.011000000
H     1.654000000     6.482000000    -3.101000000
H     1.850000000     5.979000000    -4.514000000
O    -2.099000000    -3.467000000     4.970000000
H    -2.449000000    -3.122000000     4.149000000
H    -2.358000000    -2.824000000     5.630000000
O     4.678000000    -1.564000000    -2.571000000
H     5.546000000    -1.591000000    -2.975000000
H     4.531000000    -0.638000000    -2.381000000
