144
-2810.87486
O    -3.266000000     2.447000000     3.628000000
H    -2.673000000     2.928000000     3.050000000
H    -2.767000000     1.675000000     3.893000000
O     2.508000000    -5.346000000    -1.242000000
H     3.027000000    -5.339000000    -2.046000000
H     1.599000000    -5.336000000    -1.544000000
O     2.760000000    -3.836000000    -4.682000000
H     3.374000000    -4.551000000    -4.849000000
H     3.086000000    -3.111000000    -5.215000000
O     2.444000000     3.671000000     5.895000000
H     2.744000000     3.224000000     6.687000000
H     1.941000000     4.418000000     6.218000000
O    -5.172000000     4.261000000     4.141000000
H    -5.698000000     4.294000000     3.342000000
H    -4.422000000     3.713000000     3.912000000
O    -3.379000000     3.635000000     0.265000000
H    -4.145000000     3.347000000     0.761000000
H    -2.632000000     3.367000000     0.800000000
O     0.337000000    -4.561000000    -3.772000000
H     0.949000000    -3.983000000    -4.228000000
H    -0.384000000    -4.683000000    -4.391000000
O     4.917000000    -0.345000000     0.986000000
H     4.416000000     0.259000000     1.533000000
H     4.620000000    -1.215000000     1.255000000
O    -3.331000000     2.603000000     6.832000000
H    -3.039000000     2.406000000     5.942000000
H    -4.262000000     2.380000000     6.834000000
O    -1.118000000     3.127000000    -3.461000000
H    -0.615000000     2.315000000    -3.409000000
H    -2.004000000     2.878000000    -3.197000000
O     3.806000000    -6.205000000     1.006000000
H     3.068000000    -6.295000000     1.608000000
H     3.402000000    -6.038000000     0.154000000
O     0.040000000    -7.322000000    -3.868000000
H     0.597000000    -7.665000000    -3.168000000
H     0.250000000    -6.388000000    -3.905000000
O    -4.967000000     4.318000000    -3.539000000
H    -4.650000000     5.160000000    -3.212000000
H    -4.447000000     3.667000000    -3.066000000
O     1.217000000     5.590000000     2.184000000
H     0.985000000     4.709000000     1.891000000
H     1.442000000     6.058000000     1.380000000
O     2.906000000     4.317000000    -3.198000000
H     2.161000000     4.603000000    -3.727000000
H     2.754000000     3.383000000    -3.055000000
O    -1.707000000    -7.404000000     0.154000000
H    -2.449000000    -7.349000000     0.757000000
H    -2.057000000    -7.104000000    -0.685000000
O    -0.007000000     0.604000000    -3.158000000
H     0.060000000     0.358000000    -2.236000000
H     0.894000000     0.579000000    -3.479000000
O    -1.957000000     0.344000000     4.763000000
H    -1.379000000    -0.076000000     5.401000000
H    -1.969000000    -0.258000000     4.019000000
O     3.702000000     3.743000000     1.833000000
H     3.910000000     3.604000000     0.909000000
H     2.745000000     3.744000000     1.865000000
O    -1.792000000    -1.519000000    -4.805000000
H    -2.407000000    -1.939000000    -4.204000000
H    -1.068000000    -1.234000000    -4.248000000
O    -5.839000000     2.658000000     1.515000000
H    -6.221000000     3.500000000     1.268000000
H    -6.578000000     2.147000000     1.844000000
O     3.609000000     1.036000000     2.848000000
H     2.814000000     0.752000000     3.299000000
H     3.439000000     1.949000000     2.614000000
O    -0.569000000     3.389000000     4.842000000
H    -0.270000000     4.145000000     5.347000000
H    -0.212000000     3.531000000     3.965000000
O     5.137000000     3.154000000     4.579000000
H     5.168000000     2.940000000     3.647000000
H     4.220000000     3.378000000     4.743000000
O     7.406000000    -0.839000000    -0.974000000
H     7.360000000     0.050000000    -1.325000000
H     6.536000000    -0.996000000    -0.605000000
O    -5.109000000    -4.863000000    -2.501000000
H    -5.817000000    -5.140000000    -3.083000000
H    -5.046000000    -3.917000000    -2.633000000
O    -3.519000000    -4.779000000    -0.070000000
H    -3.913000000    -3.973000000     0.264000000
H    -3.772000000    -4.805000000    -0.992000000
O    -4.547000000    -0.202000000     2.500000000
H    -4.349000000     0.606000000     2.973000000
H    -3.702000000    -0.644000000     2.417000000
O     4.170000000     0.354000000    -1.549000000
H     3.831000000    -0.406000000    -2.022000000
H     4.427000000     0.009000000    -0.694000000
O     4.778000000     2.967000000    -0.653000000
H     5.686000000     2.972000000    -0.956000000
H     4.389000000     2.201000000    -1.075000000
O    -2.211000000     8.131000000     1.766000000
H    -2.040000000     7.303000000     2.215000000
H    -1.555000000     8.167000000     1.070000000
O    -3.289000000     2.116000000    -2.247000000
H    -3.147000000     2.469000000    -1.369000000
H    -3.829000000     1.338000000    -2.108000000
O     2.660000000     1.192000000    -3.582000000
H     3.155000000     0.729000000    -4.258000000
H     3.229000000     1.170000000    -2.812000000
O    -0.606000000    -3.389000000     2.185000000
H    -0.558000000    -3.695000000     1.280000000
H    -1.265000000    -3.950000000     2.593000000
O    -5.240000000     0.263000000    -0.542000000
H    -5.835000000     0.987000000    -0.738000000
H    -5.019000000     0.378000000     0.382000000
O     3.814000000    -2.443000000    -1.990000000
H     3.259000000    -3.222000000    -1.957000000
H     4.683000000    -2.778000000    -2.214000000
O     3.360000000     5.814000000     3.963000000
H     2.433000000     5.820000000     3.722000000
H     3.590000000     4.886000000     4.010000000
O     7.123000000     1.597000000     1.916000000
H     7.591000000     1.064000000     2.558000000
H     6.413000000     1.033000000     1.609000000
O    -3.317000000     5.940000000    -1.227000000
H    -2.421000000     6.222000000    -1.411000000
H    -3.221000000     5.252000000    -0.568000000
O     1.351000000    -6.244000000     2.785000000
H     1.889000000    -6.239000000     3.577000000
H     0.452000000    -6.170000000     3.106000000
O    -1.480000000     5.776000000     3.029000000
H    -1.510000000     4.829000000     2.891000000
H    -0.581000000     6.021000000     2.809000000
O    -2.013000000    -1.055000000     2.348000000
H    -1.570000000    -0.823000000     1.532000000
H    -1.749000000    -1.960000000     2.516000000
O    -5.132000000    -2.492000000     0.817000000
H    -5.251000000    -1.548000000     0.719000000
H    -5.554000000    -2.702000000     1.649000000
O    -2.825000000    -6.691000000    -2.647000000
H    -3.284000000    -5.954000000    -3.050000000
H    -1.923000000    -6.609000000    -2.956000000
O     1.070000000     0.886000000     4.566000000
H     0.336000000     1.500000000     4.579000000
H     1.845000000     1.437000000     4.672000000
O    -4.906000000    -2.249000000    -2.908000000
H    -5.022000000    -1.544000000    -3.545000000
H    -4.925000000    -1.809000000    -2.058000000
O     1.802000000    -2.639000000     3.475000000
H     2.423000000    -2.675000000     2.747000000
H     0.946000000    -2.557000000     3.056000000
O     4.040000000    -3.159000000     1.638000000
H     3.745000000    -3.686000000     0.896000000
H     4.179000000    -3.792000000     2.342000000
