144
-2823.98891
O    -3.483000000     0.296000000     2.362000000
H    -2.812000000    -0.383000000     2.289000000
H    -3.617000000     0.400000000     3.304000000
O     3.856000000    -3.695000000     0.011000000
H     4.049000000    -4.516000000    -0.441000000
H     3.675000000    -3.071000000    -0.693000000
O     0.845000000     5.606000000     0.563000000
H     1.718000000     5.224000000     0.475000000
H     0.268000000     4.856000000     0.709000000
O    -3.735000000     2.939000000     1.212000000
H    -3.311000000     2.086000000     1.307000000
H    -3.057000000     3.572000000     1.448000000
O    -1.152000000    -4.893000000     0.289000000
H    -1.592000000    -4.054000000     0.425000000
H    -1.128000000    -5.294000000     1.158000000
O     0.585000000    -1.196000000     5.331000000
H     0.669000000    -0.257000000     5.497000000
H     1.194000000    -1.368000000     4.614000000
O     2.659000000    -5.822000000    -2.524000000
H     3.346000000    -6.222000000    -3.059000000
H     2.888000000    -4.893000000    -2.496000000
O     3.501000000     5.173000000     1.388000000
H     4.291000000     4.690000000     1.630000000
H     3.821000000     6.034000000     1.117000000
O     0.477000000     3.451000000    -4.060000000
H     0.727000000     3.408000000    -3.137000000
H    -0.465000000     3.623000000    -4.045000000
O    -5.433000000     2.899000000    -4.808000000
H    -4.893000000     2.426000000    -4.174000000
H    -4.806000000     3.266000000    -5.430000000
O     1.804000000     5.030000000     3.425000000
H     1.482000000     4.143000000     3.266000000
H     2.424000000     5.190000000     2.714000000
O     1.786000000    -6.654000000     0.174000000
H     2.016000000    -6.432000000    -0.728000000
H     2.235000000    -7.483000000     0.339000000
O     2.004000000     2.893000000    -1.380000000
H     1.549000000     2.471000000    -0.652000000
H     2.744000000     2.315000000    -1.568000000
O    -1.160000000    -3.724000000     4.551000000
H    -1.692000000    -3.834000000     5.339000000
H    -0.724000000    -2.880000000     4.673000000
O     3.828000000     2.358000000     2.267000000
H     3.779000000     1.411000000     2.402000000
H     2.927000000     2.662000000     2.379000000
O     5.558000000     3.014000000    -0.203000000
H     5.847000000     2.262000000    -0.720000000
H     5.085000000     2.629000000     0.535000000
O     3.650000000     0.691000000     4.789000000
H     3.729000000    -0.190000000     5.155000000
H     2.749000000     0.950000000     4.982000000
O    -1.846000000     3.882000000     4.020000000
H    -1.770000000     3.024000000     4.437000000
H    -1.230000000     3.849000000     3.288000000
O     5.095000000     3.373000000     5.189000000
H     4.669000000     2.889000000     4.481000000
H     5.557000000     2.703000000     5.693000000
O    -2.675000000    -4.348000000    -3.128000000
H    -3.526000000    -4.370000000    -3.567000000
H    -2.679000000    -3.524000000    -2.641000000
O    -3.610000000    -0.446000000    -4.685000000
H    -3.969000000     0.036000000    -5.430000000
H    -3.089000000    -1.144000000    -5.081000000
O    -0.859000000    -6.084000000    -2.270000000
H    -0.551000000    -5.684000000    -1.456000000
H    -1.491000000    -5.457000000    -2.621000000
O    -1.692000000    -1.773000000     2.070000000
H    -1.297000000    -2.387000000     2.689000000
H    -0.948000000    -1.318000000     1.676000000
O     6.284000000    -0.975000000     3.343000000
H     6.666000000    -1.849000000     3.427000000
H     5.384000000    -1.077000000     3.652000000
O     4.426000000    -0.919000000     1.278000000
H     4.585000000    -1.615000000     0.641000000
H     5.273000000    -0.786000000     1.704000000
O    -3.235000000     6.586000000     3.313000000
H    -4.190000000     6.553000000     3.263000000
H    -2.938000000     6.190000000     2.493000000
O    -3.775000000     1.863000000    -3.111000000
H    -3.868000000     1.811000000    -2.160000000
H    -3.605000000     0.962000000    -3.385000000
O     3.748000000     0.822000000    -1.291000000
H     4.282000000     0.615000000    -2.058000000
H     4.184000000     0.372000000    -0.568000000
O    -4.674000000     0.271000000    -0.440000000
H    -5.549000000    -0.100000000    -0.331000000
H    -4.296000000     0.255000000     0.439000000
O     2.569000000    -4.309000000     2.364000000
H     1.672000000    -4.517000000     2.103000000
H     3.101000000    -4.555000000     1.608000000
O     0.192000000     8.282000000     2.010000000
H     0.229000000     7.345000000     1.817000000
H     0.317000000     8.337000000     2.957000000
O    -0.556000000     6.622000000    -2.808000000
H    -0.858000000     7.009000000    -1.987000000
H    -0.606000000     5.678000000    -2.662000000
O    -1.088000000     2.717000000     6.306000000
H    -0.770000000     2.243000000     7.074000000
H    -1.343000000     3.576000000     6.643000000
O     3.583000000    -1.863000000    -2.169000000
H     3.296000000    -1.168000000    -1.577000000
H     3.791000000    -1.411000000    -2.987000000
O    -1.970000000     4.035000000    -3.095000000
H    -2.424000000     3.307000000    -2.670000000
H    -2.672000000     4.592000000    -3.430000000
O     4.549000000    -0.300000000    -4.378000000
H     4.909000000     0.565000000    -4.183000000
H     3.608000000    -0.151000000    -4.474000000
O    -6.204000000     3.286000000    -0.004000000
H    -5.317000000     3.323000000     0.352000000
H    -6.461000000     2.369000000     0.086000000
O    -2.044000000     5.253000000     1.155000000
H    -1.240000000     4.756000000     1.303000000
H    -1.821000000     5.866000000     0.454000000
O    -3.924000000    -2.858000000     0.294000000
H    -3.087000000    -2.558000000     0.650000000
H    -3.896000000    -2.604000000    -0.628000000
O    -3.509000000    -7.109000000    -0.375000000
H    -2.898000000    -6.386000000    -0.518000000
H    -3.558000000    -7.553000000    -1.221000000
O    -4.807000000     4.676000000     4.477000000
H    -3.958000000     4.347000000     4.183000000
H    -4.594000000     5.317000000     5.155000000
O     1.030000000     1.495000000     5.058000000
H     0.511000000     2.059000000     5.632000000
H     1.094000000     1.982000000     4.237000000
O     1.826000000     0.947000000    -5.076000000
H     1.376000000     1.778000000    -4.924000000
H     1.214000000     0.437000000    -5.606000000
O    -3.637000000    -1.736000000    -2.380000000
H    -3.767000000    -1.374000000    -3.256000000
H    -4.217000000    -1.221000000    -1.819000000
O     0.136000000    -0.560000000    -6.413000000
H     0.025000000    -1.463000000    -6.711000000
H    -0.610000000    -0.091000000    -6.787000000
O    -0.483000000     6.604000000     4.127000000
H    -1.235000000     6.019000000     4.207000000
H     0.188000000     6.075000000     3.695000000
O     2.542000000    -1.798000000     3.337000000
H     2.665000000    -2.736000000     3.190000000
H     3.085000000    -1.378000000     2.669000000
O    -0.222000000    -6.806000000     2.080000000
H    -0.619000000    -7.639000000     1.824000000
H     0.478000000    -6.669000000     1.442000000
