144
-2805.82494
O    -4.067000000     0.842000000     4.149000000
H    -3.689000000     0.690000000     3.283000000
H    -4.455000000     0.002000000     4.393000000
O     1.030000000     2.852000000    -4.610000000
H     1.344000000     2.052000000    -5.031000000
H     0.610000000     3.345000000    -5.315000000
O    -5.931000000     1.786000000     2.269000000
H    -5.932000000     2.169000000     3.146000000
H    -5.040000000     1.457000000     2.153000000
O    -3.261000000     4.035000000    -2.394000000
H    -2.599000000     3.465000000    -2.001000000
H    -3.216000000     3.844000000    -3.330000000
O    -4.913000000     5.615000000     3.941000000
H    -5.456000000     4.885000000     4.237000000
H    -4.408000000     5.257000000     3.211000000
O    -2.692000000    -5.627000000     1.416000000
H    -1.986000000    -5.099000000     1.789000000
H    -3.464000000    -5.062000000     1.464000000
O     0.843000000     5.804000000    -0.783000000
H     0.178000000     5.288000000    -0.327000000
H     0.518000000     5.875000000    -1.680000000
O    -0.107000000    -2.191000000    -3.540000000
H     0.380000000    -1.894000000    -4.308000000
H     0.356000000    -2.979000000    -3.254000000
O    -4.778000000    -4.064000000     2.047000000
H    -4.794000000    -3.977000000     3.000000000
H    -5.067000000    -3.210000000     1.724000000
O     7.327000000     0.259000000     0.397000000
H     7.286000000    -0.387000000    -0.308000000
H     7.521000000    -0.254000000     1.181000000
O     5.477000000     2.233000000     0.170000000
H     5.778000000     2.708000000    -0.605000000
H     6.158000000     1.580000000     0.331000000
O     5.779000000    -2.367000000     1.649000000
H     6.239000000    -2.993000000     2.208000000
H     5.216000000    -1.878000000     2.249000000
O     4.092000000     2.765000000    -4.518000000
H     3.538000000     3.512000000    -4.744000000
H     3.576000000     1.999000000    -4.770000000
O    -1.630000000    -5.867000000    -1.814000000
H    -2.196000000    -5.858000000    -2.586000000
H    -2.002000000    -6.547000000    -1.252000000
O    -1.648000000     4.823000000     0.477000000
H    -1.788000000     4.564000000     1.388000000
H    -1.858000000     5.756000000     0.459000000
O     5.280000000    -4.653000000    -0.110000000
H     5.961000000    -4.999000000    -0.686000000
H     5.581000000    -3.773000000     0.115000000
O    -5.421000000    -0.154000000    -1.989000000
H    -5.299000000    -1.088000000    -2.159000000
H    -4.831000000     0.035000000    -1.259000000
O     0.757000000    -4.773000000    -2.886000000
H     0.134000000    -5.189000000    -2.290000000
H     1.611000000    -4.914000000    -2.477000000
O     3.523000000     4.254000000    -0.309000000
H     3.339000000     4.571000000    -1.193000000
H     3.768000000     3.337000000    -0.429000000
O    -2.749000000    -2.985000000    -2.147000000
H    -2.172000000    -2.396000000    -2.632000000
H    -2.259000000    -3.805000000    -2.086000000
O    -0.251000000    -1.556000000     3.188000000
H     0.238000000    -2.035000000     2.519000000
H    -1.162000000    -1.816000000     3.051000000
O    -0.408000000     1.480000000     6.248000000
H    -0.032000000     1.709000000     5.398000000
H    -1.000000000     2.204000000     6.451000000
O    -5.650000000    -1.872000000     0.985000000
H    -6.254000000    -1.297000000     1.454000000
H    -4.974000000    -1.284000000     0.646000000
O    -0.721000000     2.682000000    -2.433000000
H    -0.235000000     2.859000000    -3.238000000
H    -0.260000000     3.183000000    -1.760000000
O    -2.512000000    -2.461000000    -5.322000000
H    -3.439000000    -2.271000000    -5.178000000
H    -2.055000000    -1.921000000    -4.676000000
O    -1.323000000     0.427000000    -3.942000000
H    -1.240000000     1.079000000    -3.245000000
H    -0.878000000    -0.348000000    -3.599000000
O     3.268000000    -4.848000000    -2.008000000
H     3.647000000    -5.659000000    -2.347000000
H     3.689000000    -4.724000000    -1.157000000
O    -0.265000000    -4.961000000    -5.560000000
H    -1.186000000    -5.030000000    -5.811000000
H    -0.281000000    -4.523000000    -4.709000000
O     2.452000000     0.679000000    -5.815000000
H     1.877000000    -0.079000000    -5.708000000
H     2.443000000     0.855000000    -6.756000000
O    -5.213000000    -3.587000000    -1.443000000
H    -5.277000000    -3.252000000    -0.548000000
H    -4.347000000    -3.307000000    -1.741000000
O     4.837000000    -1.613000000    -4.645000000
H     4.205000000    -0.906000000    -4.779000000
H     4.687000000    -2.210000000    -5.378000000
O    -3.852000000     2.851000000     6.257000000
H    -3.602000000     2.580000000     5.373000000
H    -4.305000000     2.090000000     6.620000000
O     4.093000000    -1.982000000     3.744000000
H     3.557000000    -1.207000000     3.577000000
H     3.479000000    -2.625000000     4.101000000
O     7.706000000    -2.063000000    -1.137000000
H     7.069000000    -2.388000000    -1.774000000
H     8.453000000    -2.655000000    -1.222000000
O    -7.155000000     1.919000000    -0.785000000
H    -6.596000000     1.199000000    -1.078000000
H    -6.960000000     2.009000000     0.148000000
O     6.178000000    -3.317000000    -3.109000000
H     5.502000000    -3.994000000    -3.095000000
H     5.784000000    -2.594000000    -3.597000000
O     7.214000000    -0.056000000    -3.312000000
H     6.368000000    -0.449000000    -3.525000000
H     7.058000000     0.888000000    -3.357000000
O     3.247000000     0.880000000     3.839000000
H     3.992000000     1.401000000     3.541000000
H     3.361000000     0.818000000     4.787000000
O    -7.332000000     4.182000000     1.481000000
H    -8.137000000     3.897000000     1.913000000
H    -6.703000000     3.483000000     1.661000000
O     5.404000000     2.135000000     2.815000000
H     6.197000000     1.600000000     2.784000000
H     5.249000000     2.387000000     1.905000000
O    -0.127000000     4.936000000     3.682000000
H     0.504000000     4.524000000     4.273000000
H    -0.883000000     4.349000000     3.692000000
O     2.442000000     5.233000000     2.352000000
H     2.289000000     4.846000000     1.490000000
H     1.572000000     5.283000000     2.750000000
O    -1.848000000     2.708000000     3.701000000
H    -2.374000000     2.297000000     3.015000000
H    -1.100000000     2.120000000     3.812000000
O     0.512000000     1.236000000     3.606000000
H     1.466000000     1.229000000     3.526000000
H     0.235000000     0.395000000     3.242000000
O    -7.903000000     0.151000000     1.965000000
H    -7.294000000     0.858000000     2.181000000
H    -8.153000000    -0.216000000     2.813000000
O    -1.028000000    -4.211000000     3.298000000
H    -0.121000000    -4.450000000     3.488000000
H    -1.394000000    -3.964000000     4.147000000
O     2.959000000    -5.093000000     1.638000000
H     3.454000000    -4.630000000     0.963000000
H     3.624000000    -5.557000000     2.147000000
O    -4.043000000     4.030000000     1.732000000
H    -3.770000000     4.396000000     0.891000000
H    -3.915000000     3.086000000     1.636000000
