144
-2821.64978
O     0.760000000     2.010000000     4.595000000
H    -0.039000000     1.482000000     4.578000000
H     0.492000000     2.836000000     4.998000000
O    -3.818000000     3.109000000     0.025000000
H    -3.510000000     2.621000000     0.789000000
H    -4.034000000     2.435000000    -0.619000000
O     0.025000000     4.444000000     5.351000000
H     0.370000000     5.295000000     5.622000000
H    -0.360000000     4.606000000     4.490000000
O    -4.044000000     1.041000000     6.722000000
H    -4.519000000     1.268000000     7.521000000
H    -3.159000000     0.832000000     7.020000000
O     1.816000000     1.011000000     2.060000000
H     1.040000000     0.601000000     1.677000000
H     1.468000000     1.682000000     2.647000000
O    -4.024000000     6.060000000    -0.077000000
H    -3.790000000     5.206000000     0.286000000
H    -3.717000000     6.027000000    -0.983000000
O    -4.261000000    -4.882000000     3.039000000
H    -4.183000000    -5.756000000     3.420000000
H    -3.398000000    -4.488000000     3.164000000
O    -1.971000000    -3.762000000     3.921000000
H    -1.335000000    -3.835000000     3.209000000
H    -1.449000000    -3.847000000     4.719000000
O     0.583000000    -5.230000000    -4.469000000
H     1.214000000    -5.160000000    -5.186000000
H     1.072000000    -4.959000000    -3.692000000
O     2.054000000     2.338000000    -4.405000000
H     1.228000000     2.812000000    -4.308000000
H     2.571000000     2.599000000    -3.643000000
O     3.080000000     2.598000000    -0.040000000
H     4.000000000     2.338000000    -0.087000000
H     2.656000000     1.891000000     0.446000000
O     0.020000000     3.776000000    -3.700000000
H     0.038000000     4.573000000    -3.170000000
H    -0.885000000     3.469000000    -3.640000000
O     3.405000000    -0.951000000     3.169000000
H     2.933000000    -1.780000000     3.094000000
H     2.871000000    -0.325000000     2.680000000
O     2.553000000    -4.002000000    -2.846000000
H     3.012000000    -3.682000000    -2.069000000
H     2.604000000    -3.278000000    -3.469000000
O    -5.281000000     4.488000000     1.778000000
H    -5.708000000     5.205000000     1.310000000
H    -4.953000000     3.912000000     1.087000000
O    -1.554000000     4.663000000     2.262000000
H    -1.807000000     3.780000000     1.993000000
H    -0.751000000     4.842000000     1.771000000
O    -3.575000000    -1.673000000     3.161000000
H    -3.154000000    -0.841000000     3.381000000
H    -2.994000000    -2.339000000     3.528000000
O     1.747000000     4.531000000    -1.352000000
H     2.134000000     3.770000000    -0.919000000
H     1.046000000     4.811000000    -0.763000000
O    -0.063000000    -2.163000000    -6.282000000
H     0.147000000    -1.260000000    -6.044000000
H    -1.004000000    -2.152000000    -6.458000000
O    -5.671000000    -0.805000000     6.002000000
H    -5.246000000     0.046000000     5.894000000
H    -5.210000000    -1.211000000     6.736000000
O     0.561000000     5.939000000     1.132000000
H     0.244000000     6.657000000     0.584000000
H     1.426000000     6.227000000     1.426000000
O    -2.481000000     0.011000000    -3.659000000
H    -2.457000000    -0.803000000    -3.157000000
H    -2.527000000     0.700000000    -2.997000000
O     5.409000000    -4.924000000    -2.704000000
H     5.126000000    -4.121000000    -2.267000000
H     5.628000000    -4.647000000    -3.594000000
O     6.754000000    -2.367000000     0.481000000
H     7.491000000    -1.918000000     0.067000000
H     6.316000000    -1.687000000     0.993000000
O    -5.394000000     1.383000000     2.863000000
H    -5.186000000     0.623000000     2.319000000
H    -4.558000000     1.835000000     2.974000000
O    -4.120000000     0.987000000    -1.391000000
H    -4.380000000     0.330000000    -2.037000000
H    -4.250000000     0.556000000    -0.546000000
O    -2.780000000    -4.845000000    -1.027000000
H    -3.663000000    -5.082000000    -0.744000000
H    -2.795000000    -3.889000000    -1.083000000
O    -4.503000000    -0.745000000     0.822000000
H    -4.302000000    -1.188000000     1.647000000
H    -5.411000000    -0.982000000     0.638000000
O     3.663000000     0.516000000    -5.485000000
H     3.045000000     1.039000000    -4.974000000
H     4.427000000     1.082000000    -5.590000000
O     3.000000000    -2.121000000    -4.830000000
H     3.143000000    -1.232000000    -5.155000000
H     2.051000000    -2.187000000    -4.722000000
O    -2.448000000     2.918000000    -2.850000000
H    -3.024000000     2.509000000    -2.204000000
H    -2.850000000     3.769000000    -3.025000000
O     4.619000000     2.952000000    -3.572000000
H     5.078000000     2.760000000    -4.390000000
H     4.722000000     3.896000000    -3.456000000
O     5.767000000     1.721000000    -0.099000000
H     5.544000000     1.639000000    -1.027000000
H     5.814000000     0.819000000     0.216000000
O     0.545000000    -3.689000000     5.464000000
H     0.293000000    -2.766000000     5.439000000
H     1.295000000    -3.717000000     6.057000000
O     2.022000000    -3.553000000     3.160000000
H     1.512000000    -3.648000000     3.965000000
H     1.401000000    -3.750000000     2.459000000
O     5.072000000     0.506000000    -2.321000000
H     5.146000000     1.335000000    -2.795000000
H     5.485000000    -0.137000000    -2.898000000
O     5.610000000    -0.468000000     1.767000000
H     4.929000000    -0.732000000     2.386000000
H     5.931000000     0.368000000     2.107000000
O    -0.269000000    -1.020000000     4.935000000
H    -0.874000000    -0.584000000     4.334000000
H     0.271000000    -0.312000000     5.286000000
O    -3.023000000    -2.110000000    -1.320000000
H    -3.092000000    -1.448000000    -0.631000000
H    -3.817000000    -1.996000000    -1.842000000
O    -2.043000000    -3.820000000    -3.895000000
H    -1.779000000    -3.573000000    -3.008000000
H    -1.337000000    -3.495000000    -4.454000000
O     4.683000000    -2.745000000    -1.220000000
H     5.238000000    -2.675000000    -0.444000000
H     4.483000000    -1.839000000    -1.455000000
O    -6.891000000     2.184000000     5.022000000
H    -6.419000000     1.721000000     4.330000000
H    -7.378000000     1.499000000     5.479000000
O    -2.858000000     2.765000000     4.967000000
H    -3.452000000     2.266000000     5.528000000
H    -2.686000000     2.185000000     4.225000000
O    -0.044000000     0.168000000    -5.142000000
H    -0.887000000     0.228000000    -4.692000000
H     0.532000000     0.754000000    -4.651000000
O    -4.682000000     5.004000000     4.291000000
H    -4.933000000     4.799000000     3.391000000
H    -3.965000000     4.400000000     4.483000000
O    -0.990000000    -4.602000000     1.581000000
H    -1.417000000    -4.265000000     0.793000000
H    -1.058000000    -5.553000000     1.503000000
O     3.177000000    -6.891000000    -1.944000000
H     2.791000000    -6.015000000    -1.927000000
H     4.082000000    -6.749000000    -2.221000000
O     3.392000000     6.419000000    -2.586000000
H     2.891000000     5.754000000    -2.113000000
H     3.732000000     6.994000000    -1.900000000
