144
-2804.21245
O    -5.684000000     2.676000000     5.011000000
H    -5.035000000     2.053000000     5.338000000
H    -5.289000000     3.042000000     4.220000000
O    -5.905000000     5.359000000     0.037000000
H    -5.426000000     5.718000000     0.783000000
H    -5.381000000     4.609000000    -0.246000000
O    -4.932000000     0.635000000     0.826000000
H    -4.153000000     1.190000000     0.858000000
H    -4.593000000    -0.258000000     0.882000000
O     2.967000000     3.895000000     2.773000000
H     2.362000000     3.255000000     2.399000000
H     2.413000000     4.467000000     3.304000000
O    -2.773000000     6.530000000    -0.088000000
H    -3.445000000     6.637000000     0.585000000
H    -2.827000000     5.607000000    -0.336000000
O     5.339000000    -2.399000000     4.584000000
H     5.130000000    -1.936000000     3.773000000
H     5.724000000    -1.729000000     5.150000000
O     0.091000000     4.013000000    -0.507000000
H     0.103000000     4.393000000    -1.385000000
H     0.473000000     3.143000000    -0.617000000
O    -3.907000000     3.869000000     3.196000000
H    -3.307000000     4.097000000     3.906000000
H    -3.359000000     3.418000000     2.554000000
O     2.196000000    -5.245000000     1.908000000
H     2.309000000    -4.768000000     2.730000000
H     1.595000000    -5.958000000     2.125000000
O    -2.209000000    -3.224000000     1.721000000
H    -1.350000000    -3.430000000     1.354000000
H    -2.574000000    -4.074000000     1.969000000
O     1.788000000     0.165000000    -5.148000000
H     1.034000000     0.730000000    -4.979000000
H     2.547000000     0.737000000    -5.030000000
O    -6.532000000     2.483000000    -0.427000000
H    -7.457000000     2.493000000    -0.181000000
H    -6.151000000     1.785000000     0.106000000
O    -2.245000000     2.901000000    -2.958000000
H    -2.781000000     2.450000000    -3.609000000
H    -1.344000000     2.684000000    -3.197000000
O    -3.499000000    -0.606000000    -5.526000000
H    -3.244000000     0.313000000    -5.442000000
H    -3.795000000    -0.691000000    -6.432000000
O     1.322000000    -5.226000000    -2.260000000
H     1.129000000    -5.512000000    -3.153000000
H     1.794000000    -4.401000000    -2.369000000
O    -3.464000000     3.777000000    -0.627000000
H    -3.109000000     3.354000000     0.155000000
H    -3.049000000     3.317000000    -1.357000000
O     0.098000000     4.811000000    -3.347000000
H    -0.622000000     4.597000000    -3.939000000
H     0.186000000     5.762000000    -3.410000000
O    -0.064000000     0.994000000     5.344000000
H    -0.538000000     1.454000000     4.652000000
H    -0.731000000     0.799000000     6.003000000
O     4.901000000    -0.763000000     0.549000000
H     5.694000000    -0.242000000     0.680000000
H     4.588000000    -0.510000000    -0.319000000
O     5.407000000    -3.328000000     1.502000000
H     5.439000000    -3.996000000     0.817000000
H     5.103000000    -2.539000000     1.052000000
O    -2.561000000    -2.691000000    -2.475000000
H    -3.420000000    -2.269000000    -2.489000000
H    -2.149000000    -2.426000000    -3.297000000
O     2.537000000     0.666000000     4.980000000
H     1.701000000     1.114000000     5.106000000
H     3.008000000     0.803000000     5.802000000
O     2.570000000     1.611000000     0.927000000
H     2.264000000     0.714000000     0.793000000
H     3.063000000     1.817000000     0.133000000
O    -1.765000000    -2.638000000    -5.510000000
H    -2.192000000    -1.782000000    -5.545000000
H    -2.483000000    -3.259000000    -5.387000000
O    -2.915000000    -0.999000000    -0.039000000
H    -2.133000000    -0.809000000    -0.558000000
H    -2.683000000    -1.778000000     0.467000000
O    -5.197000000     3.210000000    -2.783000000
H    -5.099000000     2.277000000    -2.974000000
H    -5.048000000     3.279000000    -1.840000000
O     4.770000000    -2.815000000    -6.154000000
H     4.183000000    -2.135000000    -6.484000000
H     4.886000000    -2.602000000    -5.227000000
O     5.155000000     0.579000000     3.871000000
H     4.261000000     0.551000000     4.212000000
H     5.155000000     1.316000000     3.259000000
O    -0.164000000    -1.754000000     4.960000000
H     0.125000000    -0.858000000     4.783000000
H     0.595000000    -2.175000000     5.364000000
O    -4.593000000     0.597000000     6.740000000
H    -4.346000000     0.646000000     5.817000000
H    -4.638000000    -0.341000000     6.926000000
O    -2.886000000    -4.939000000    -1.065000000
H    -2.043000000    -5.299000000    -0.789000000
H    -2.668000000    -4.095000000    -1.461000000
O     5.329000000    -1.821000000    -3.501000000
H     6.178000000    -1.560000000    -3.145000000
H     4.695000000    -1.529000000    -2.846000000
O    -1.940000000     1.013000000     7.734000000
H    -1.633000000     1.902000000     7.556000000
H    -2.884000000     1.050000000     7.579000000
O    -0.944000000     4.992000000     2.014000000
H    -1.149000000     4.119000000     2.351000000
H    -0.944000000     4.888000000     1.063000000
O     1.085000000     5.688000000     4.034000000
H     0.553000000     5.488000000     3.264000000
H     1.533000000     6.504000000     3.810000000
O     5.938000000    -5.046000000    -3.409000000
H     6.524000000    -5.132000000    -4.161000000
H     5.383000000    -4.296000000    -3.623000000
O     1.941000000    -2.657000000     6.225000000
H     2.209000000    -3.153000000     6.998000000
H     2.397000000    -1.819000000     6.308000000
O     0.080000000     2.453000000    -4.799000000
H     0.544000000     3.279000000    -4.658000000
H    -0.065000000     2.417000000    -5.744000000
O    -2.800000000    -1.756000000     3.735000000
H    -2.462000000    -2.299000000     3.022000000
H    -2.035000000    -1.568000000     4.277000000
O     1.225000000    -4.621000000    -5.363000000
H     0.382000000    -4.923000000    -5.701000000
H     1.456000000    -3.880000000    -5.923000000
O    -3.717000000     0.733000000     4.183000000
H    -3.242000000    -0.068000000     3.962000000
H    -3.562000000     1.316000000     3.440000000
O     1.454000000    -2.329000000    -6.602000000
H     1.889000000    -1.500000000    -6.403000000
H     0.527000000    -2.159000000    -6.437000000
O    -1.834000000     3.877000000     4.747000000
H    -1.321000000     3.339000000     4.143000000
H    -1.288000000     3.943000000     5.531000000
O    -0.126000000    -4.924000000     0.101000000
H     0.076000000    -5.030000000    -0.829000000
H     0.721000000    -4.998000000     0.540000000
O    -1.759000000     7.461000000     2.748000000
H    -1.498000000     6.647000000     2.318000000
H    -1.383000000     8.151000000     2.202000000
O     4.353000000     0.546000000    -2.176000000
H     5.291000000     0.569000000    -2.362000000
H     4.054000000     1.441000000    -2.337000000
O     4.392000000    -6.019000000     0.394000000
H     3.851000000    -5.577000000     1.049000000
H     4.365000000    -6.942000000     0.644000000
O    -4.431000000     6.464000000     2.048000000
H    -4.425000000     5.658000000     2.565000000
H    -3.682000000     6.963000000     2.374000000
