144
-2783.42127
O    -4.046000000     2.450000000     0.205000000
H    -3.474000000     2.279000000     0.954000000
H    -4.733000000     1.787000000     0.272000000
O     4.923000000    -2.083000000     1.221000000
H     5.808000000    -1.832000000     1.484000000
H     5.015000000    -2.370000000     0.313000000
O    -3.235000000     4.769000000    -0.928000000
H    -2.288000000     4.877000000    -1.012000000
H    -3.360000000     3.826000000    -0.822000000
O     3.802000000     2.920000000     5.229000000
H     4.085000000     2.988000000     6.140000000
H     3.741000000     3.827000000     4.929000000
O     4.672000000    -0.389000000    -1.402000000
H     4.469000000     0.420000000    -1.872000000
H     4.956000000    -0.098000000    -0.536000000
O    -0.546000000     4.675000000    -0.654000000
H    -0.070000000     4.004000000    -1.143000000
H     0.128000000     5.119000000    -0.140000000
O    -1.505000000    -5.245000000     2.648000000
H    -1.646000000    -6.150000000     2.369000000
H    -1.045000000    -5.320000000     3.484000000
O     0.091000000    -1.516000000     6.763000000
H     0.951000000    -1.170000000     6.999000000
H     0.094000000    -1.532000000     5.806000000
O     0.674000000    -2.370000000     4.149000000
H     0.668000000    -1.419000000     4.041000000
H    -0.218000000    -2.641000000     3.931000000
O     2.486000000    -4.240000000    -4.439000000
H     2.979000000    -4.167000000    -5.256000000
H     2.786000000    -3.499000000    -3.912000000
O     1.886000000     2.867000000     8.425000000
H     1.299000000     3.610000000     8.284000000
H     1.660000000     2.248000000     7.730000000
O    -1.256000000     2.045000000     8.248000000
H    -0.569000000     1.983000000     7.584000000
H    -2.067000000     2.122000000     7.746000000
O     2.332000000     0.845000000    -4.968000000
H     2.626000000     0.934000000    -4.062000000
H     1.389000000     1.007000000    -4.931000000
O     0.419000000     3.980000000     3.816000000
H    -0.125000000     3.208000000     3.660000000
H     0.887000000     4.114000000     2.992000000
O    -2.310000000    -0.454000000     5.072000000
H    -1.528000000    -0.030000000     4.717000000
H    -2.152000000    -0.493000000     6.016000000
O     3.142000000     1.675000000    -2.379000000
H     3.754000000     2.355000000    -2.096000000
H     2.379000000     1.789000000    -1.812000000
O    -3.348000000    -1.311000000     2.699000000
H    -3.024000000    -1.196000000     3.592000000
H    -4.153000000    -1.820000000     2.800000000
O     1.783000000     3.866000000     1.455000000
H     1.768000000     4.685000000     0.961000000
H     2.707000000     3.618000000     1.479000000
O    -0.183000000    -2.061000000    -5.571000000
H    -0.886000000    -2.077000000    -4.922000000
H     0.526000000    -1.581000000    -5.144000000
O     3.076000000     0.296000000     5.122000000
H     2.356000000     0.393000000     4.498000000
H     3.480000000     1.162000000     5.158000000
O    -2.665000000     1.407000000    -7.779000000
H    -2.148000000     0.622000000    -7.598000000
H    -2.042000000     2.017000000    -8.174000000
O    -3.285000000     1.611000000     2.566000000
H    -3.300000000     0.690000000     2.305000000
H    -2.372000000     1.779000000     2.800000000
O     2.256000000     5.405000000    -3.136000000
H     1.641000000     4.690000000    -2.973000000
H     2.926000000     5.022000000    -3.700000000
O    -4.300000000    -4.115000000    -3.126000000
H    -4.582000000    -3.221000000    -3.320000000
H    -3.943000000    -4.438000000    -3.953000000
O    -5.483000000     1.788000000    -3.693000000
H    -6.184000000     1.136000000    -3.705000000
H    -4.856000000     1.454000000    -3.051000000
O    -2.953000000     1.894000000    -4.984000000
H    -3.168000000     1.872000000    -5.916000000
H    -3.759000000     2.187000000    -4.559000000
O    -1.102000000    -5.483000000    -0.249000000
H    -0.987000000    -5.314000000     0.686000000
H    -1.862000000    -4.956000000    -0.497000000
O    -5.700000000     0.346000000     4.461000000
H    -5.051000000     0.825000000     3.946000000
H    -5.341000000     0.335000000     5.349000000
O    -2.678000000    -1.019000000    -0.049000000
H    -2.827000000    -1.084000000     0.894000000
H    -1.766000000    -0.740000000    -0.129000000
O    -1.350000000    -6.065000000    -4.893000000
H    -2.065000000    -5.529000000    -5.236000000
H    -0.942000000    -5.518000000    -4.222000000
O     1.272000000    -7.441000000    -0.447000000
H     1.123000000    -7.751000000    -1.341000000
H     0.708000000    -6.672000000    -0.363000000
O    -3.747000000     0.475000000    -1.952000000
H    -3.834000000     1.121000000    -1.251000000
H    -3.464000000    -0.324000000    -1.508000000
O    -0.346000000     2.148000000    -5.269000000
H    -1.206000000     1.727000000    -5.247000000
H    -0.430000000     2.830000000    -5.934000000
O     3.805000000    -0.896000000     7.518000000
H     4.550000000    -1.469000000     7.337000000
H     3.624000000    -0.468000000     6.681000000
O    -0.698000000    -1.395000000    -8.250000000
H    -0.512000000    -1.667000000    -7.351000000
H    -1.187000000    -2.128000000    -8.625000000
O     0.249000000     3.654000000    -3.005000000
H    -0.513000000     4.144000000    -3.313000000
H     0.273000000     2.874000000    -3.559000000
O     3.950000000    -2.527000000    -3.150000000
H     4.666000000    -2.262000000    -3.728000000
H     4.097000000    -2.031000000    -2.345000000
O     2.742000000    -3.623000000     6.350000000
H     2.185000000    -3.477000000     5.586000000
H     2.218000000    -3.319000000     7.091000000
O    -3.136000000    -3.681000000    -0.681000000
H    -3.146000000    -2.729000000    -0.583000000
H    -3.488000000    -3.834000000    -1.558000000
O     0.134000000    -4.571000000    -3.146000000
H     0.383000000    -4.769000000    -2.243000000
H     0.961000000    -4.371000000    -3.584000000
O    -4.517000000     3.941000000     3.015000000
H    -4.186000000     3.076000000     2.776000000
H    -3.830000000     4.546000000     2.734000000
O     0.503000000     2.011000000     6.219000000
H     0.614000000     2.735000000     5.603000000
H     0.546000000     1.225000000     5.675000000
O    -2.624000000    -1.249000000    -4.487000000
H    -2.644000000    -0.323000000    -4.247000000
H    -3.521000000    -1.552000000    -4.348000000
O     1.527000000    -3.444000000    -7.550000000
H     1.235000000    -3.032000000    -8.363000000
H     0.831000000    -3.255000000    -6.922000000
O    -1.373000000     5.782000000     4.806000000
H    -1.781000000     5.260000000     5.497000000
H    -0.672000000     5.224000000     4.468000000
O     3.102000000    -3.465000000     3.042000000
H     3.442000000    -2.854000000     2.388000000
H     2.231000000    -3.129000000     3.254000000
O     4.661000000    -5.574000000    -2.661000000
H     5.352000000    -5.271000000    -3.249000000
H     4.000000000    -4.882000000    -2.692000000
O    -3.198000000    -2.669000000    -7.087000000
H    -2.691000000    -2.053000000    -6.557000000
H    -2.631000000    -2.868000000    -7.831000000
