144
-2822.18595
O    -6.665000000     0.625000000    -2.192000000
H    -5.742000000     0.790000000    -2.387000000
H    -6.919000000     1.344000000    -1.613000000
O    -3.314000000    -2.289000000     6.086000000
H    -3.535000000    -3.128000000     5.680000000
H    -3.547000000    -1.636000000     5.427000000
O    -0.358000000     4.290000000     2.951000000
H    -0.165000000     4.796000000     2.162000000
H    -1.314000000     4.246000000     2.980000000
O    -4.228000000    -0.457000000     4.166000000
H    -3.606000000    -0.076000000     3.546000000
H    -4.528000000    -1.260000000     3.742000000
O    -0.442000000     3.763000000    -0.399000000
H    -0.791000000     3.056000000     0.145000000
H    -0.662000000     3.507000000    -1.294000000
O    -4.673000000     3.012000000     3.261000000
H    -4.299000000     2.279000000     2.772000000
H    -3.932000000     3.597000000     3.419000000
O     0.095000000    -4.392000000     1.983000000
H     0.273000000    -4.164000000     1.071000000
H     0.386000000    -5.301000000     2.064000000
O     2.665000000     1.732000000    -4.962000000
H     2.669000000     2.688000000    -4.920000000
H     2.026000000     1.466000000    -4.301000000
O     4.280000000     4.678000000     2.302000000
H     3.664000000     4.008000000     2.005000000
H     4.395000000     5.251000000     1.544000000
O     3.469000000    -3.613000000     0.485000000
H     3.245000000    -2.969000000     1.157000000
H     3.596000000    -4.429000000     0.968000000
O    -2.821000000    -0.181000000    -4.367000000
H    -2.949000000    -1.081000000    -4.067000000
H    -2.291000000    -0.267000000    -5.160000000
O     3.129000000    -1.463000000     6.726000000
H     3.026000000    -0.908000000     7.498000000
H     3.319000000    -0.852000000     6.014000000
O     3.436000000    -1.763000000     2.632000000
H     3.706000000    -1.030000000     3.186000000
H     2.825000000    -2.261000000     3.175000000
O     0.175000000    -4.468000000    -3.455000000
H    -0.061000000    -4.032000000    -4.274000000
H     0.130000000    -5.402000000    -3.659000000
O    -5.058000000     1.679000000     0.083000000
H    -4.687000000     1.343000000     0.899000000
H    -4.530000000     2.451000000    -0.121000000
O     0.229000000    -0.750000000     4.922000000
H    -0.408000000    -0.296000000     4.370000000
H     0.461000000    -0.110000000     5.595000000
O     5.455000000    -0.174000000    -0.498000000
H     5.891000000     0.425000000    -1.104000000
H     5.138000000     0.388000000     0.209000000
O     4.816000000    -2.774000000    -1.709000000
H     4.250000000    -3.116000000    -1.017000000
H     5.103000000    -1.921000000    -1.384000000
O    -2.457000000    -3.826000000    -0.776000000
H    -1.539000000    -3.563000000    -0.701000000
H    -2.499000000    -4.677000000    -0.340000000
O     1.624000000    -2.862000000     4.279000000
H     1.164000000    -2.154000000     4.731000000
H     1.298000000    -3.661000000     4.693000000
O    -4.651000000    -1.990000000     1.533000000
H    -5.126000000    -1.739000000     0.741000000
H    -3.728000000    -1.887000000     1.302000000
O    -1.045000000     2.587000000    -2.959000000
H    -0.985000000     3.020000000    -3.811000000
H    -1.052000000     1.653000000    -3.165000000
O    -4.239000000    -3.426000000    -5.100000000
H    -4.047000000    -3.109000000    -4.217000000
H    -3.379000000    -3.589000000    -5.488000000
O    -3.575000000    -2.264000000    -2.775000000
H    -4.282000000    -2.073000000    -2.159000000
H    -2.900000000    -2.684000000    -2.242000000
O    -5.283000000     1.924000000     5.726000000
H    -5.036000000     1.089000000     5.327000000
H    -5.031000000     2.582000000     5.079000000
O    -4.399000000     2.075000000    -3.490000000
H    -3.892000000     2.572000000    -2.848000000
H    -3.827000000     1.347000000    -3.734000000
O     7.552000000     0.991000000    -2.226000000
H     7.696000000     0.168000000    -2.693000000
H     6.899000000     1.454000000    -2.751000000
O    -7.295000000     3.817000000     4.309000000
H    -6.495000000     3.388000000     4.007000000
H    -7.893000000     3.764000000     3.563000000
O     6.119000000    -2.250000000     1.315000000
H     5.371000000    -2.241000000     1.913000000
H     5.836000000    -1.720000000     0.570000000
O    -1.602000000    -2.725000000     3.497000000
H    -1.086000000    -3.062000000     2.765000000
H    -1.160000000    -1.914000000     3.748000000
O     4.078000000    -0.005000000     4.626000000
H     3.650000000     0.800000000     4.919000000
H     4.997000000     0.239000000     4.516000000
O    -1.018000000    -1.967000000     7.484000000
H    -0.562000000    -1.209000000     7.119000000
H    -1.596000000    -2.261000000     6.780000000
O     2.306000000     2.942000000     1.456000000
H     1.604000000     2.362000000     1.161000000
H     1.863000000     3.598000000     1.995000000
O    -6.063000000    -1.969000000    -1.330000000
H    -6.278000000    -1.158000000    -1.790000000
H    -6.580000000    -2.641000000    -1.774000000
O     3.061000000    -1.219000000    -5.113000000
H     2.921000000    -0.277000000    -5.010000000
H     3.975000000    -1.296000000    -5.385000000
O    -0.127000000     1.229000000     6.727000000
H    -0.535000000     1.236000000     7.593000000
H     0.241000000     2.107000000     6.629000000
O    -2.990000000     5.223000000     2.968000000
H    -3.755000000     5.431000000     2.431000000
H    -2.682000000     6.072000000     3.285000000
O     0.756000000     3.712000000     5.323000000
H     0.169000000     3.639000000     4.570000000
H     1.360000000     4.416000000     5.089000000
O     4.335000000    -4.212000000    -4.030000000
H     4.612000000    -3.936000000    -3.156000000
H     3.701000000    -3.548000000    -4.302000000
O    -3.541000000     4.159000000    -0.542000000
H    -2.655000000     4.448000000    -0.760000000
H    -4.113000000     4.780000000    -0.993000000
O    -2.746000000     4.637000000     6.593000000
H    -3.563000000     5.005000000     6.258000000
H    -2.602000000     3.852000000     6.064000000
O     2.515000000     4.530000000    -3.839000000
H     3.106000000     4.398000000    -3.097000000
H     1.805000000     5.066000000    -3.486000000
O    -6.475000000    -2.542000000     3.340000000
H    -7.041000000    -1.770000000     3.323000000
H    -5.818000000    -2.372000000     2.665000000
O     1.709000000    -2.032000000    -7.573000000
H     1.419000000    -1.137000000    -7.747000000
H     2.399000000    -1.936000000    -6.916000000
O    -2.239000000     2.190000000     5.371000000
H    -1.625000000     1.735000000     5.947000000
H    -2.214000000     1.693000000     4.554000000
O     1.056000000    -4.518000000    -0.890000000
H     0.788000000    -4.475000000    -1.808000000
H     1.971000000    -4.235000000    -0.894000000
O     4.664000000     1.635000000     1.430000000
H     5.117000000     2.386000000     1.813000000
H     3.799000000     1.971000000     1.195000000
O     3.303000000     2.743000000     5.697000000
H     2.370000000     2.941000000     5.623000000
H     3.698000000     3.561000000     5.999000000
