144
-2843.07698
O     0.094000000    -4.656000000     5.416000000
H     0.800000000    -4.956000000     5.989000000
H     0.471000000    -4.683000000     4.537000000
O     0.913000000     1.663000000     4.604000000
H     0.174000000     2.242000000     4.792000000
H     0.614000000     0.796000000     4.877000000
O    -2.266000000    -3.160000000     5.358000000
H    -2.186000000    -2.560000000     4.617000000
H    -1.370000000    -3.266000000     5.678000000
O    -2.967000000     3.261000000     1.666000000
H    -3.501000000     2.581000000     2.075000000
H    -2.979000000     3.047000000     0.733000000
O    -4.221000000    -5.934000000     0.420000000
H    -4.156000000    -6.338000000    -0.446000000
H    -3.328000000    -5.658000000     0.624000000
O    -3.013000000    -0.171000000    -1.983000000
H    -3.449000000    -0.663000000    -1.288000000
H    -2.179000000    -0.623000000    -2.110000000
O    -2.573000000     1.781000000     4.856000000
H    -2.069000000     1.095000000     4.418000000
H    -1.914000000     2.325000000     5.286000000
O    -0.592000000     7.248000000     1.199000000
H    -0.262000000     7.948000000     1.762000000
H     0.122000000     6.611000000     1.164000000
O     3.405000000    -4.006000000     5.143000000
H     3.155000000    -4.272000000     6.028000000
H     2.575000000    -3.937000000     4.671000000
O    -4.434000000    -4.659000000     6.081000000
H    -3.728000000    -4.029000000     5.937000000
H    -4.736000000    -4.885000000     5.201000000
O     3.540000000    -4.495000000     1.554000000
H     4.322000000    -5.041000000     1.473000000
H     3.770000000    -3.680000000     1.107000000
O    -0.335000000    -0.726000000    -5.093000000
H    -0.740000000    -1.188000000    -4.359000000
H    -0.932000000    -0.872000000    -5.827000000
O    -2.965000000     6.236000000     0.406000000
H    -2.181000000     6.691000000     0.712000000
H    -2.986000000     5.426000000     0.916000000
O     3.099000000    -5.332000000    -1.897000000
H     3.104000000    -4.376000000    -1.858000000
H     3.140000000    -5.534000000    -2.832000000
O    -3.750000000    -1.883000000     2.634000000
H    -2.842000000    -1.882000000     2.937000000
H    -4.035000000    -2.791000000     2.738000000
O    -1.473000000     4.869000000    -2.095000000
H    -1.530000000     4.783000000    -3.047000000
H    -2.174000000     5.479000000    -1.867000000
O     3.870000000     0.870000000     1.469000000
H     3.617000000     0.173000000     0.864000000
H     4.025000000     0.422000000     2.300000000
O    -2.713000000    -4.427000000     2.890000000
H    -2.045000000    -4.102000000     2.286000000
H    -2.434000000    -4.109000000     3.749000000
O     3.125000000     0.050000000     3.914000000
H     2.601000000    -0.606000000     4.372000000
H     2.628000000     0.863000000     4.009000000
O    -4.266000000    -1.948000000    -0.446000000
H    -4.346000000    -1.932000000     0.507000000
H    -3.593000000    -2.607000000    -0.619000000
O    -2.796000000     2.770000000    -1.024000000
H    -2.604000000     2.065000000    -1.642000000
H    -2.323000000     3.527000000    -1.368000000
O    -5.673000000    -3.863000000     1.735000000
H    -6.378000000    -3.835000000     1.089000000
H    -5.034000000    -4.474000000     1.367000000
O     0.055000000     2.341000000    -5.358000000
H    -0.840000000     2.665000000    -5.252000000
H     0.034000000     1.457000000    -4.991000000
O    -0.948000000    -5.700000000    -2.427000000
H    -0.243000000    -6.162000000    -1.974000000
H    -1.148000000    -6.250000000    -3.184000000
O    -1.057000000    -7.257000000     1.009000000
H    -0.437000000    -6.889000000     0.379000000
H    -0.687000000    -7.039000000     1.865000000
O    -0.942000000    -1.860000000     7.759000000
H    -1.200000000    -2.706000000     8.126000000
H    -1.431000000    -1.217000000     8.273000000
O    -5.361000000    -0.466000000     4.870000000
H    -4.840000000    -0.259000000     4.095000000
H    -5.976000000     0.264000000     4.947000000
O     1.374000000    -4.870000000     3.139000000
H     2.166000000    -4.815000000     2.604000000
H     0.681000000    -4.524000000     2.577000000
O     4.527000000     0.216000000    -3.751000000
H     4.441000000    -0.459000000    -3.078000000
H     4.580000000    -0.270000000    -4.573000000
O     5.915000000     2.276000000    -2.131000000
H     5.442000000     1.773000000    -2.794000000
H     6.065000000     3.129000000    -2.539000000
O     1.494000000     4.936000000    -4.069000000
H     1.244000000     4.012000000    -4.065000000
H     2.200000000     4.989000000    -4.713000000
O    -1.225000000     4.934000000     3.339000000
H    -0.383000000     4.770000000     2.913000000
H    -1.824000000     4.306000000     2.936000000
O     2.415000000     3.240000000     3.145000000
H     1.830000000     2.773000000     3.742000000
H     2.725000000     2.568000000     2.538000000
O    -2.427000000     3.856000000    -4.521000000
H    -3.208000000     3.305000000    -4.575000000
H    -2.645000000     4.631000000    -5.040000000
O     2.152000000    -1.855000000    -4.448000000
H     2.044000000    -2.801000000    -4.343000000
H     1.258000000    -1.515000000    -4.479000000
O     4.893000000     3.327000000     0.362000000
H     5.011000000     2.916000000    -0.495000000
H     4.467000000     2.654000000     0.893000000
O     1.114000000    -6.573000000    -0.766000000
H     1.858000000    -6.111000000    -1.153000000
H     1.279000000    -7.496000000    -0.958000000
O     1.444000000     5.298000000    -1.379000000
H     0.531000000     5.038000000    -1.258000000
H     1.577000000     5.275000000    -2.326000000
O     0.668000000    -4.199000000    -4.427000000
H     0.323000000    -4.148000000    -5.318000000
H     0.658000000    -5.133000000    -4.219000000
O    -0.724000000     3.555000000     5.579000000
H    -1.082000000     4.128000000     4.902000000
H    -0.314000000     4.152000000     6.206000000
O     2.087000000    -1.094000000     7.468000000
H     1.717000000    -1.602000000     8.190000000
H     1.553000000    -1.331000000     6.710000000
O     3.215000000    -2.648000000    -2.097000000
H     3.644000000    -2.005000000    -1.533000000
H     2.905000000    -2.141000000    -2.848000000
O    -4.141000000     0.850000000     2.395000000
H    -3.927000000    -0.074000000     2.530000000
H    -4.692000000     0.856000000     1.613000000
O     2.813000000     7.262000000    -0.254000000
H     3.637000000     6.803000000    -0.416000000
H     2.138000000     6.663000000    -0.575000000
O    -0.001000000    -0.738000000     5.340000000
H    -0.458000000    -1.120000000     6.090000000
H    -0.294000000    -1.257000000     4.591000000
O    -2.114000000    -4.209000000    -0.334000000
H    -1.521000000    -4.631000000    -0.955000000
H    -1.543000000    -3.905000000     0.372000000
O    -2.009000000    -2.644000000    -3.224000000
H    -1.391000000    -3.367000000    -3.115000000
H    -2.767000000    -3.041000000    -3.653000000
O     0.985000000     4.897000000     1.474000000
H     1.744000000     4.831000000     2.054000000
H     1.310000000     4.610000000     0.620000000
