144
-2814.53649
O    -0.609000000    -4.960000000     4.376000000
H     0.199000000    -4.447000000     4.396000000
H    -0.824000000    -5.032000000     3.445000000
O     0.968000000     1.847000000     4.603000000
H     1.033000000     2.111000000     5.520000000
H     0.371000000     1.099000000     4.611000000
O    -3.162000000    -4.359000000     5.694000000
H    -3.158000000    -3.436000000     5.949000000
H    -2.240000000    -4.615000000     5.706000000
O    -2.584000000     3.169000000     2.049000000
H    -3.123000000     2.383000000     1.968000000
H    -2.427000000     3.446000000     1.146000000
O    -4.290000000    -1.954000000     6.557000000
H    -4.727000000    -1.144000000     6.820000000
H    -4.436000000    -2.553000000     7.290000000
O    -2.954000000     0.472000000    -2.274000000
H    -2.488000000     0.165000000    -1.496000000
H    -2.791000000    -0.204000000    -2.932000000
O     4.646000000     5.563000000    -1.074000000
H     4.908000000     4.644000000    -1.022000000
H     5.001000000     5.958000000    -0.277000000
O    -2.456000000     1.708000000     5.632000000
H    -1.869000000     0.988000000     5.401000000
H    -2.055000000     2.481000000     5.235000000
O    -0.496000000     5.725000000     2.009000000
H    -1.349000000     5.554000000     1.611000000
H     0.094000000     5.851000000     1.265000000
O     3.374000000    -2.675000000     2.997000000
H     2.694000000    -3.103000000     2.477000000
H     3.029000000    -2.674000000     3.890000000
O    -6.195000000    -4.525000000     4.760000000
H    -5.296000000    -4.232000000     4.911000000
H    -6.102000000    -5.398000000     4.379000000
O     2.723000000    -3.456000000    -1.223000000
H     2.737000000    -4.087000000    -0.504000000
H     2.569000000    -2.612000000    -0.798000000
O     0.003000000    -0.229000000    -5.152000000
H    -0.729000000    -0.507000000    -4.601000000
H    -0.407000000     0.250000000    -5.871000000
O     5.951000000    -0.325000000    -2.226000000
H     5.165000000    -0.706000000    -1.835000000
H     5.618000000     0.300000000    -2.871000000
O    -3.079000000     5.705000000     0.289000000
H    -2.945000000     5.274000000    -0.555000000
H    -3.813000000     5.235000000     0.685000000
O    -4.547000000    -1.781000000     3.801000000
H    -3.599000000    -1.844000000     3.691000000
H    -4.683000000    -1.847000000     4.747000000
O    -4.389000000     3.645000000    -3.436000000
H    -3.794000000     3.250000000    -4.075000000
H    -4.845000000     4.330000000    -3.926000000
O     3.301000000     1.858000000     1.039000000
H     2.577000000     2.201000000     1.564000000
H     3.907000000     1.488000000     1.681000000
O     5.507000000     3.919000000    -4.534000000
H     6.291000000     4.413000000    -4.294000000
H     4.790000000     4.547000000    -4.440000000
O     3.672000000    -0.525000000    -0.616000000
H     3.380000000     0.293000000    -0.213000000
H     4.247000000    -0.922000000     0.038000000
O    -3.510000000    -4.784000000     2.309000000
H    -2.710000000    -4.298000000     2.110000000
H    -3.564000000    -4.776000000     3.264000000
O     2.102000000    -1.058000000     5.546000000
H     2.249000000    -0.323000000     6.140000000
H     1.323000000    -0.812000000     5.048000000
O    -4.511000000    -1.147000000    -0.237000000
H    -4.913000000    -1.194000000    -1.105000000
H    -4.075000000    -1.992000000    -0.130000000
O    -2.352000000     3.197000000    -1.113000000
H    -2.816000000     2.719000000    -1.801000000
H    -1.426000000     3.034000000    -1.291000000
O    -6.376000000    -4.034000000     1.665000000
H    -5.448000000    -3.801000000     1.669000000
H    -6.587000000    -4.191000000     2.585000000
O    -1.644000000     3.150000000    -4.478000000
H    -2.323000000     2.984000000    -5.131000000
H    -1.858000000     2.562000000    -3.754000000
O    -1.049000000    -3.845000000    -2.901000000
H    -0.823000000    -4.547000000    -2.291000000
H    -1.147000000    -4.284000000    -3.746000000
O    -4.053000000    -6.610000000     0.245000000
H    -3.285000000    -7.143000000     0.036000000
H    -3.716000000    -5.918000000     0.813000000
O     0.688000000    -5.034000000     1.328000000
H     0.411000000    -5.228000000     0.433000000
H     0.128000000    -4.307000000     1.600000000
O     3.045000000     1.055000000    -5.817000000
H     2.241000000     0.952000000    -5.308000000
H     2.787000000     1.590000000    -6.568000000
O     4.416000000     1.575000000    -3.614000000
H     3.941000000     1.391000000    -4.425000000
H     4.810000000     2.436000000    -3.758000000
O     1.540000000     5.454000000    -4.725000000
H     1.391000000     4.609000000    -5.150000000
H     1.564000000     6.083000000    -5.446000000
O    -1.519000000     4.206000000     4.468000000
H    -0.821000000     4.176000000     3.814000000
H    -2.266000000     4.586000000     4.004000000
O     1.863000000     3.687000000     2.746000000
H     1.588000000     3.050000000     3.406000000
H     1.091000000     4.235000000     2.606000000
O     0.904000000    -2.129000000    -6.891000000
H     0.081000000    -2.532000000    -7.168000000
H     0.666000000    -1.600000000    -6.129000000
O     5.111000000     2.710000000    -0.916000000
H     4.952000000     2.160000000    -1.683000000
H     4.408000000     2.481000000    -0.307000000
O    -0.070000000    -5.904000000    -1.095000000
H     0.826000000    -6.195000000    -1.270000000
H    -0.580000000    -6.713000000    -1.057000000
O     0.801000000     7.227000000    -2.510000000
H    -0.122000000     7.173000000    -2.755000000
H     1.244000000     6.624000000    -3.107000000
O     0.802000000     3.359000000    -6.494000000
H     0.764000000     3.875000000    -7.298000000
H    -0.112000000     3.262000000    -6.227000000
O     4.434000000     6.439000000    -3.639000000
H     5.057000000     6.575000000    -2.925000000
H     3.650000000     6.097000000    -3.209000000
O     1.858000000    -4.410000000    -3.546000000
H     0.909000000    -4.330000000    -3.451000000
H     2.206000000    -4.157000000    -2.691000000
O    -5.011000000     1.142000000     4.857000000
H    -4.169000000     1.317000000     5.278000000
H    -4.791000000     0.981000000     3.939000000
O    -3.681000000     0.361000000     1.973000000
H    -3.171000000    -0.332000000     2.393000000
H    -3.958000000    -0.018000000     1.138000000
O    -6.770000000    -0.430000000     2.295000000
H    -7.335000000    -0.258000000     3.048000000
H    -6.045000000    -0.944000000     2.651000000
O    -0.816000000    -0.574000000     5.090000000
H    -1.099000000    -1.178000000     5.777000000
H    -1.130000000    -0.971000000     4.278000000
O    -2.996000000    -3.557000000    -0.796000000
H    -2.429000000    -3.625000000    -1.564000000
H    -2.392000000    -3.549000000    -0.053000000
O    -2.127000000    -1.572000000    -3.915000000
H    -1.304000000    -2.060000000    -3.891000000
H    -2.806000000    -2.242000000    -3.829000000
O     1.203000000     5.792000000    -0.235000000
H     1.945000000     5.220000000    -0.428000000
H     1.065000000     6.287000000    -1.043000000
