144
-2803.86009
O    -5.806000000    -1.398000000    -0.602000000
H    -5.537000000    -1.139000000    -1.484000000
H    -4.983000000    -1.528000000    -0.130000000
O    -7.466000000    -2.473000000     2.152000000
H    -7.190000000    -3.385000000     2.067000000
H    -8.416000000    -2.499000000     2.036000000
O     2.556000000    -4.580000000    -4.270000000
H     2.778000000    -4.409000000    -3.355000000
H     3.397000000    -4.755000000    -4.692000000
O    -5.917000000     2.514000000    -0.853000000
H    -6.221000000     2.085000000    -1.652000000
H    -5.395000000     1.847000000    -0.406000000
O    -5.162000000    -4.940000000    -4.344000000
H    -6.045000000    -5.282000000    -4.203000000
H    -4.882000000    -4.636000000    -3.480000000
O     5.581000000     0.046000000     2.345000000
H     5.358000000     0.977000000     2.365000000
H     5.409000000    -0.222000000     1.443000000
O     3.062000000    -2.329000000    -0.744000000
H     2.123000000    -2.147000000    -0.757000000
H     3.137000000    -3.227000000    -1.066000000
O     0.967000000     0.487000000    -4.209000000
H     1.914000000     0.352000000    -4.248000000
H     0.857000000     1.250000000    -3.642000000
O     4.644000000     5.278000000     0.472000000
H     4.417000000     5.385000000     1.395000000
H     5.332000000     5.926000000     0.317000000
O    -0.348000000     5.829000000    -2.401000000
H     0.284000000     5.776000000    -1.684000000
H     0.181000000     6.032000000    -3.172000000
O     4.804000000     3.977000000    -3.079000000
H     4.423000000     4.855000000    -3.067000000
H     5.521000000     4.035000000    -3.711000000
O    -3.512000000    -2.904000000     2.798000000
H    -2.751000000    -3.466000000     2.649000000
H    -3.497000000    -2.283000000     2.070000000
O     7.962000000     1.395000000    -0.876000000
H     8.224000000     0.512000000    -0.615000000
H     7.067000000     1.487000000    -0.549000000
O    -1.832000000     1.045000000     4.550000000
H    -1.578000000     1.955000000     4.706000000
H    -2.780000000     1.036000000     4.679000000
O    -1.710000000    -6.520000000    -1.138000000
H    -1.608000000    -5.794000000    -1.753000000
H    -0.816000000    -6.819000000    -0.970000000
O    -4.673000000    -3.758000000     5.250000000
H    -4.338000000    -3.464000000     4.403000000
H    -4.557000000    -3.004000000     5.828000000
O    -1.222000000    -4.684000000    -5.913000000
H    -1.374000000    -4.369000000    -6.804000000
H    -0.751000000    -3.969000000    -5.483000000
O     3.114000000    -0.134000000     4.298000000
H     2.578000000     0.633000000     4.097000000
H     2.805000000    -0.808000000     3.691000000
O     5.053000000    -0.545000000    -0.345000000
H     5.043000000     0.383000000    -0.577000000
H     4.220000000    -0.884000000    -0.673000000
O    -4.095000000    -5.345000000     1.568000000
H    -4.525000000    -4.778000000     2.208000000
H    -3.259000000    -4.915000000     1.390000000
O     2.427000000     2.530000000     3.763000000
H     3.171000000     2.899000000     3.288000000
H     1.748000000     3.203000000     3.706000000
O     0.184000000    -3.841000000    -0.052000000
H    -0.351000000    -3.647000000    -0.822000000
H     0.889000000    -4.397000000    -0.384000000
O    -0.489000000    -2.131000000    -4.509000000
H     0.050000000    -1.387000000    -4.240000000
H    -0.933000000    -1.829000000    -5.302000000
O     1.491000000    -2.326000000     2.694000000
H     0.760000000    -2.116000000     3.275000000
H     1.077000000    -2.569000000     1.866000000
O    -4.689000000    -1.079000000    -3.167000000
H    -4.104000000    -1.574000000    -2.593000000
H    -4.859000000    -1.670000000    -3.901000000
O    -1.334000000    -4.365000000     2.251000000
H    -1.486000000    -5.302000000     2.123000000
H    -0.753000000    -4.117000000     1.532000000
O    -0.814000000     4.807000000     1.196000000
H    -1.466000000     5.454000000     1.466000000
H    -1.326000000     4.099000000     0.807000000
O     2.931000000     3.518000000    -5.366000000
H     3.119000000     4.434000000    -5.164000000
H     3.288000000     3.031000000    -4.623000000
O    -4.275000000     1.086000000     0.712000000
H    -4.139000000     0.220000000     0.328000000
H    -4.479000000     0.911000000     1.631000000
O    -0.533000000     2.051000000    -5.756000000
H    -1.434000000     1.762000000    -5.904000000
H    -0.119000000     1.320000000    -5.298000000
O    -4.571000000     1.027000000     5.065000000
H    -5.126000000     0.607000000     4.407000000
H    -4.933000000     1.908000000     5.156000000
O     5.518000000    -1.978000000     4.135000000
H     5.593000000    -1.259000000     3.508000000
H     5.179000000    -1.568000000     4.930000000
O    -4.452000000    -7.097000000    -1.110000000
H    -3.503000000    -7.211000000    -1.064000000
H    -4.583000000    -6.151000000    -1.047000000
O     3.647000000    -0.290000000    -4.974000000
H     4.371000000     0.308000000    -4.785000000
H     3.772000000    -0.534000000    -5.891000000
O     5.242000000     3.039000000     2.826000000
H     4.927000000     3.920000000     2.621000000
H     5.957000000     3.178000000     3.447000000
O    -4.564000000    -4.352000000    -1.303000000
H    -4.644000000    -4.157000000    -0.369000000
H    -3.864000000    -3.775000000    -1.609000000
O     2.151000000     4.827000000    -1.204000000
H     2.223000000     5.188000000    -0.321000000
H     3.057000000     4.715000000    -1.492000000
O     0.252000000     2.751000000    -2.305000000
H     1.002000000     3.054000000    -1.794000000
H    -0.124000000     3.549000000    -2.676000000
O     0.468000000     6.986000000     0.240000000
H     0.025000000     6.211000000     0.588000000
H     0.810000000     7.434000000     1.014000000
O    -5.959000000     0.043000000     2.622000000
H    -6.737000000     0.600000000     2.611000000
H    -6.261000000    -0.796000000     2.273000000
O    -3.075000000     0.519000000    -5.414000000
H    -3.384000000    -0.203000000    -4.867000000
H    -3.616000000     1.265000000    -5.155000000
O    -1.214000000    -4.147000000    -2.786000000
H    -0.964000000    -3.701000000    -3.596000000
H    -1.727000000    -3.498000000    -2.304000000
O    -8.555000000    -0.896000000    -0.861000000
H    -8.136000000    -1.141000000    -1.687000000
H    -7.890000000    -1.071000000    -0.195000000
O    -2.260000000     2.685000000    -0.352000000
H    -1.582000000     2.112000000    -0.710000000
H    -2.714000000     2.144000000     0.295000000
O    -0.700000000    -1.568000000     4.349000000
H    -0.776000000    -0.630000000     4.174000000
H    -1.269000000    -1.717000000     5.104000000
O     5.425000000     2.334000000    -0.572000000
H     5.747000000     2.977000000     0.059000000
H     5.240000000     2.844000000    -1.361000000
O     3.512000000     5.353000000     3.106000000
H     3.571000000     5.061000000     4.016000000
H     2.768000000     5.956000000     3.096000000
O     0.287000000     4.402000000     3.803000000
H    -0.479000000     4.666000000     4.313000000
H    -0.005000000     4.442000000     2.893000000
