144
-2811.81382
O    -3.190000000    -2.217000000     3.339000000
H    -3.249000000    -1.997000000     2.409000000
H    -4.080000000    -2.471000000     3.582000000
O    -2.563000000    -3.620000000     5.577000000
H    -2.589000000    -3.299000000     4.676000000
H    -1.634000000    -3.774000000     5.751000000
O    -4.018000000     2.534000000     4.356000000
H    -4.845000000     2.709000000     4.804000000
H    -3.471000000     2.114000000     5.020000000
O    -2.064000000     4.983000000    -1.036000000
H    -2.323000000     4.079000000    -1.213000000
H    -1.438000000     5.193000000    -1.729000000
O     5.702000000     1.296000000    -3.172000000
H     6.557000000     1.606000000    -3.470000000
H     5.157000000     2.083000000    -3.150000000
O     5.201000000    -1.526000000     1.314000000
H     6.153000000    -1.576000000     1.400000000
H     5.012000000    -1.961000000     0.483000000
O    -3.352000000     2.610000000    -2.202000000
H    -2.645000000     1.965000000    -2.205000000
H    -3.911000000     2.355000000    -2.936000000
O     0.551000000    -3.143000000    -0.770000000
H     0.714000000    -2.220000000    -0.575000000
H     0.007000000    -3.449000000    -0.045000000
O    -5.856000000    -2.598000000     4.249000000
H    -6.056000000    -2.529000000     5.182000000
H    -6.112000000    -1.750000000     3.886000000
O     3.466000000    -3.114000000    -0.536000000
H     2.573000000    -3.447000000    -0.621000000
H     3.908000000    -3.405000000    -1.333000000
O     5.011000000     2.933000000     2.843000000
H     4.072000000     2.761000000     2.911000000
H     5.158000000     3.687000000     3.414000000
O     3.171000000     3.654000000    -5.671000000
H     3.493000000     3.806000000    -4.783000000
H     3.835000000     4.048000000    -6.237000000
O    -4.559000000     1.520000000     1.724000000
H    -4.391000000     1.728000000     2.643000000
H    -3.816000000     0.976000000     1.463000000
O    -3.920000000     4.845000000     2.025000000
H    -4.191000000     3.967000000     2.292000000
H    -4.701000000     5.225000000     1.622000000
O     4.882000000    -3.398000000    -2.798000000
H     4.607000000    -2.506000000    -2.586000000
H     5.191000000    -3.345000000    -3.702000000
O    -6.635000000    -0.123000000     1.917000000
H    -5.970000000     0.518000000     1.665000000
H    -6.258000000    -0.968000000     1.674000000
O     2.602000000     4.336000000    -0.656000000
H     2.365000000     3.550000000    -0.163000000
H     1.936000000     4.980000000    -0.414000000
O    -1.850000000    -6.093000000    -1.850000000
H    -1.774000000    -5.417000000    -2.523000000
H    -0.971000000    -6.161000000    -1.478000000
O    -5.862000000     3.553000000    -1.548000000
H    -4.995000000     3.208000000    -1.335000000
H    -5.689000000     4.286000000    -2.139000000
O    -4.693000000    -2.756000000    -5.049000000
H    -4.030000000    -2.803000000    -5.738000000
H    -5.528000000    -2.781000000    -5.516000000
O    -5.077000000     1.191000000    -4.146000000
H    -5.559000000     0.586000000    -3.582000000
H    -5.604000000     1.245000000    -4.944000000
O     3.462000000    -0.509000000    -2.908000000
H     4.335000000    -0.118000000    -2.939000000
H     3.124000000    -0.273000000    -2.044000000
O    -5.537000000    -2.647000000     0.909000000
H    -5.128000000    -1.812000000     0.682000000
H    -4.994000000    -3.306000000     0.477000000
O     4.168000000     3.776000000    -2.963000000
H     3.596000000     3.966000000    -2.220000000
H     4.629000000     4.598000000    -3.128000000
O    -7.905000000     1.623000000    -1.968000000
H    -7.329000000     0.860000000    -1.912000000
H    -7.352000000     2.360000000    -1.711000000
O     4.207000000    -2.994000000     3.647000000
H     4.286000000    -2.430000000     4.416000000
H     4.533000000    -2.459000000     2.923000000
O    -2.786000000    -0.180000000    -3.594000000
H    -3.068000000    -0.705000000    -2.845000000
H    -3.583000000    -0.047000000    -4.107000000
O     1.568000000     4.546000000     2.326000000
H     1.788000000     5.478000000     2.327000000
H     0.643000000     4.518000000     2.083000000
O     1.347000000    -1.668000000    -4.955000000
H     0.841000000    -0.865000000    -4.828000000
H     2.063000000    -1.602000000    -4.323000000
O     1.015000000    -5.144000000    -4.547000000
H     0.419000000    -4.578000000    -4.057000000
H     1.406000000    -5.712000000    -3.883000000
O     3.360000000     0.528000000    -5.480000000
H     3.179000000     1.467000000    -5.433000000
H     3.240000000     0.215000000    -4.584000000
O     1.380000000    -2.607000000     2.715000000
H     2.298000000    -2.713000000     2.965000000
H     1.179000000    -1.694000000     2.923000000
O     0.146000000    -4.973000000     2.184000000
H    -0.769000000    -4.840000000     1.934000000
H     0.450000000    -4.105000000     2.448000000
O     0.805000000     3.316000000    -3.643000000
H     0.709000000     2.904000000    -4.502000000
H     1.663000000     3.025000000    -3.333000000
O     4.450000000    -0.410000000     4.928000000
H     3.520000000    -0.246000000     4.777000000
H     4.531000000    -0.470000000     5.880000000
O    -5.963000000    -0.281000000    -2.095000000
H    -5.168000000    -0.419000000    -1.580000000
H    -6.422000000    -1.120000000    -2.057000000
O     2.454000000     2.224000000     3.673000000
H     2.077000000     2.905000000     3.115000000
H     2.741000000     2.690000000     4.459000000
O    -0.355000000     0.363000000    -4.681000000
H    -1.191000000     0.015000000    -4.369000000
H    -0.587000000     1.179000000    -5.124000000
O    -0.950000000    -3.645000000    -3.080000000
H    -0.465000000    -3.134000000    -2.432000000
H    -1.869000000    -3.453000000    -2.897000000
O    -6.997000000    -4.530000000     2.418000000
H    -6.391000000    -3.917000000     2.002000000
H    -6.863000000    -4.401000000     3.357000000
O    -7.805000000    -2.761000000    -1.592000000
H    -7.064000000    -3.353000000    -1.718000000
H    -8.519000000    -3.160000000    -2.090000000
O    -1.052000000     4.763000000     1.533000000
H    -0.951000000     5.174000000     0.675000000
H    -1.992000000     4.801000000     1.708000000
O    -2.307000000    -4.066000000     0.959000000
H    -2.838000000    -3.289000000     1.134000000
H    -2.920000000    -4.693000000     0.574000000
O    -3.626000000    -3.283000000    -2.243000000
H    -4.267000000    -3.103000000    -2.931000000
H    -3.629000000    -2.494000000    -1.701000000
O     5.471000000     4.019000000    -0.022000000
H     5.311000000     4.148000000     0.913000000
H     4.662000000     4.307000000    -0.445000000
O     6.430000000     0.929000000     1.840000000
H     6.092000000     1.823000000     1.879000000
H     5.654000000     0.375000000     1.928000000
O    -2.612000000    -0.273000000     5.831000000
H    -1.692000000    -0.381000000     6.069000000
H    -2.797000000    -1.009000000     5.249000000
O     1.546000000    -0.397000000     4.737000000
H     0.840000000    -0.113000000     5.318000000
H     1.745000000     0.374000000     4.206000000
