144
-2830.41986
O    -1.381000000     2.944000000    -5.299000000
H    -0.968000000     3.800000000    -5.188000000
H    -1.990000000     2.875000000    -4.564000000
O    -4.253000000    -2.570000000    -2.395000000
H    -4.209000000    -3.085000000    -3.201000000
H    -3.768000000    -1.769000000    -2.596000000
O     4.016000000     2.876000000    -3.184000000
H     3.959000000     1.978000000    -2.857000000
H     3.323000000     2.935000000    -3.842000000
O     2.207000000    -3.958000000    -3.136000000
H     2.090000000    -4.209000000    -2.219000000
H     3.155000000    -3.900000000    -3.250000000
O    -1.335000000     4.938000000    -2.584000000
H    -2.124000000     5.117000000    -3.096000000
H    -0.805000000     5.729000000    -2.678000000
O     0.405000000     5.328000000    -5.106000000
H     0.204000000     5.849000000    -4.329000000
H     0.332000000     5.946000000    -5.834000000
O    -0.833000000    -6.090000000     2.667000000
H    -0.838000000    -5.163000000     2.431000000
H    -1.226000000    -6.532000000     1.914000000
O     1.277000000    -2.239000000     4.664000000
H     1.938000000    -1.901000000     4.060000000
H     0.531000000    -2.457000000     4.105000000
O    -3.671000000     0.389000000    -2.487000000
H    -2.949000000    -0.042000000    -2.944000000
H    -3.257000000     1.110000000    -2.011000000
O     4.055000000     5.434000000    -2.083000000
H     4.990000000     5.630000000    -2.014000000
H     4.023000000     4.544000000    -2.436000000
O     1.375000000    -4.189000000    -0.365000000
H     0.491000000    -3.825000000    -0.311000000
H     1.729000000    -4.087000000     0.519000000
O    -2.161000000    -6.077000000    -3.535000000
H    -1.926000000    -5.889000000    -2.626000000
H    -3.118000000    -6.072000000    -3.541000000
O    -3.527000000    -4.894000000     2.512000000
H    -3.395000000    -4.745000000     1.575000000
H    -3.044000000    -4.185000000     2.937000000
O     0.130000000    -2.643000000    -4.168000000
H     0.780000000    -3.164000000    -3.695000000
H    -0.288000000    -3.265000000    -4.764000000
O     1.020000000     1.054000000    -6.192000000
H     0.093000000     1.247000000    -6.050000000
H     1.028000000     0.165000000    -6.546000000
O     3.223000000     2.348000000     4.503000000
H     3.940000000     2.686000000     5.039000000
H     3.486000000     1.453000000     4.288000000
O     2.668000000    -3.844000000     2.294000000
H     2.919000000    -2.985000000     2.633000000
H     2.205000000    -4.263000000     3.020000000
O     1.348000000    -6.939000000    -0.658000000
H     1.458000000    -5.992000000    -0.572000000
H     0.917000000    -7.055000000    -1.505000000
O     1.636000000     5.729000000     1.031000000
H     1.382000000     5.967000000     1.922000000
H     0.806000000     5.633000000     0.564000000
O    -2.425000000    -7.718000000     0.558000000
H    -3.366000000    -7.878000000     0.490000000
H    -2.034000000    -8.592000000     0.584000000
O     1.299000000    -5.457000000     4.403000000
H     0.822000000    -5.295000000     5.217000000
H     0.684000000    -5.948000000     3.858000000
O     2.493000000    -0.271000000    -3.883000000
H     2.115000000    -0.113000000    -4.748000000
H     1.943000000    -0.955000000    -3.503000000
O     4.904000000     0.778000000    -5.728000000
H     4.309000000     1.391000000    -5.297000000
H     5.473000000     1.333000000    -6.261000000
O    -1.896000000    -5.505000000    -0.820000000
H    -2.103000000    -6.376000000    -0.480000000
H    -1.625000000    -5.006000000    -0.050000000
O     2.133000000     3.207000000    -5.053000000
H     1.408000000     3.830000000    -5.001000000
H     1.764000000     2.449000000    -5.506000000
O    -2.394000000    -5.938000000     5.967000000
H    -3.244000000    -5.585000000     5.707000000
H    -1.760000000    -5.295000000     5.650000000
O    -1.137000000     2.202000000     5.751000000
H    -0.731000000     1.404000000     6.090000000
H    -0.545000000     2.497000000     5.059000000
O    -2.169000000    -3.031000000     4.514000000
H    -1.690000000    -2.628000000     3.789000000
H    -1.572000000    -2.968000000     5.260000000
O     4.909000000     2.530000000    -0.074000000
H     4.465000000     3.026000000     0.614000000
H     4.984000000     3.146000000    -0.802000000
O    -5.802000000    -4.131000000     3.818000000
H    -5.115000000    -4.504000000     3.266000000
H    -5.373000000    -3.971000000     4.659000000
O    -3.421000000     5.194000000    -4.112000000
H    -3.923000000     5.571000000    -4.834000000
H    -4.079000000     4.784000000    -3.551000000
O     3.175000000    -1.099000000     3.172000000
H     4.087000000    -1.264000000     3.408000000
H     3.224000000    -0.493000000     2.432000000
O    -0.987000000    -7.886000000     4.551000000
H    -1.548000000    -7.419000000     5.170000000
H    -0.874000000    -7.276000000     3.823000000
O     0.768000000     3.616000000     4.252000000
H     1.480000000     2.980000000     4.323000000
H     0.860000000     4.167000000     5.029000000
O    -4.978000000     0.054000000     2.598000000
H    -4.143000000     0.220000000     2.161000000
H    -5.076000000     0.782000000     3.212000000
O    -3.519000000    -0.210000000     5.519000000
H    -3.229000000     0.702000000     5.496000000
H    -2.738000000    -0.716000000     5.294000000
O     0.075000000    -3.811000000     6.379000000
H    -0.349000000    -3.450000000     7.157000000
H     0.490000000    -3.056000000     5.961000000
O    -2.887000000     2.837000000    -1.283000000
H    -2.161000000     3.365000000    -1.615000000
H    -3.638000000     3.430000000    -1.290000000
O    -2.977000000     0.947000000     1.058000000
H    -2.529000000     1.234000000     0.262000000
H    -2.513000000     1.391000000     1.767000000
O     5.159000000    -0.952000000    -0.968000000
H     4.410000000    -0.673000000    -0.442000000
H     5.136000000    -0.383000000    -1.738000000
O     3.512000000     3.770000000     1.968000000
H     2.786000000     4.393000000     1.967000000
H     3.210000000     3.051000000     2.523000000
O    -4.299000000    -3.998000000    -0.117000000
H    -3.638000000    -4.555000000    -0.530000000
H    -4.521000000    -3.353000000    -0.788000000
O    -0.234000000    -0.275000000     6.189000000
H     0.263000000    -0.941000000     5.714000000
H     0.299000000    -0.084000000     6.961000000
O    -1.912000000    -1.022000000    -4.005000000
H    -2.119000000    -0.892000000    -4.930000000
H    -1.125000000    -1.567000000    -4.010000000
O     1.841000000     7.055000000    -1.624000000
H     2.515000000     6.444000000    -1.922000000
H     1.661000000     6.791000000    -0.722000000
O    -1.465000000     3.611000000     2.458000000
H    -1.238000000     4.273000000     1.806000000
H    -0.740000000     3.631000000     3.083000000
O     3.486000000     0.322000000     0.800000000
H     2.651000000     0.342000000     0.332000000
H     3.822000000     1.215000000     0.728000000
O    -1.052000000     5.505000000     0.462000000
H    -1.095000000     5.180000000    -0.438000000
H    -1.327000000     6.419000000     0.399000000
