144
-2800.75809
O    -5.108000000     1.767000000     1.787000000
H    -5.471000000     1.663000000     0.907000000
H    -4.368000000     1.161000000     1.815000000
O    -6.430000000    -5.105000000     2.109000000
H    -7.271000000    -5.443000000     1.801000000
H    -5.879000000    -5.082000000     1.327000000
O     0.828000000    -2.918000000    -4.119000000
H     1.040000000    -3.432000000    -3.339000000
H    -0.112000000    -3.047000000    -4.242000000
O    -1.050000000     5.754000000    -3.235000000
H    -1.781000000     6.335000000    -3.441000000
H    -0.269000000     6.284000000    -3.394000000
O    -3.315000000    -5.433000000     0.773000000
H    -2.703000000    -4.706000000     0.891000000
H    -2.766000000    -6.167000000     0.498000000
O     0.908000000     0.142000000     4.651000000
H     0.347000000    -0.255000000     5.317000000
H     0.754000000     1.083000000     4.738000000
O     0.746000000    -3.863000000     2.716000000
H     1.267000000    -3.060000000     2.737000000
H    -0.035000000    -3.629000000     2.215000000
O     7.240000000     1.793000000     0.331000000
H     7.510000000     2.707000000     0.415000000
H     6.342000000     1.777000000     0.662000000
O     0.912000000    -4.332000000    -1.793000000
H     0.158000000    -4.234000000    -1.212000000
H     1.604000000    -3.817000000    -1.377000000
O    -5.272000000    -4.326000000    -0.687000000
H    -5.091000000    -4.310000000    -1.627000000
H    -4.493000000    -4.725000000    -0.300000000
O    -1.979000000    -1.124000000    -6.169000000
H    -1.054000000    -1.192000000    -6.406000000
H    -2.319000000    -2.013000000    -6.276000000
O     1.616000000     2.538000000    -5.029000000
H     0.744000000     2.749000000    -5.363000000
H     2.005000000     1.985000000    -5.707000000
O     3.165000000     1.060000000     3.251000000
H     2.391000000     0.775000000     3.737000000
H     3.672000000     1.569000000     3.883000000
O     2.877000000    -2.791000000    -0.804000000
H     2.395000000    -2.627000000     0.007000000
H     3.797000000    -2.691000000    -0.560000000
O     2.388000000    -6.592000000    -1.311000000
H     1.814000000    -5.912000000    -1.664000000
H     1.891000000    -7.404000000    -1.419000000
O     2.467000000     5.629000000    -0.078000000
H     3.187000000     5.297000000    -0.615000000
H     2.226000000     6.460000000    -0.488000000
O    -1.599000000    -7.431000000     0.086000000
H    -1.932000000    -8.082000000    -0.532000000
H    -1.009000000    -7.922000000     0.657000000
O     3.004000000    -5.440000000     1.284000000
H     2.117000000    -5.089000000     1.359000000
H     3.063000000    -5.751000000     0.380000000
O     4.045000000     0.004000000    -2.010000000
H     3.410000000    -0.487000000    -1.489000000
H     4.161000000    -0.521000000    -2.803000000
O     4.425000000     1.907000000    -3.921000000
H     4.374000000     1.452000000    -3.080000000
H     3.554000000     1.802000000    -4.303000000
O    -1.876000000    -5.830000000    -2.480000000
H    -1.088000000    -6.257000000    -2.815000000
H    -1.688000000    -5.672000000    -1.554000000
O     2.780000000    -1.962000000     4.863000000
H     2.135000000    -1.256000000     4.886000000
H     3.572000000    -1.552000000     4.515000000
O     2.472000000     4.452000000    -3.261000000
H     1.650000000     4.807000000    -2.921000000
H     2.202000000     3.762000000    -3.867000000
O     2.779000000    -3.541000000    -5.938000000
H     3.555000000    -3.898000000    -5.507000000
H     2.132000000    -3.460000000    -5.238000000
O    -2.718000000    -5.664000000     4.090000000
H    -2.460000000    -5.716000000     3.169000000
H    -3.419000000    -5.013000000     4.106000000
O    -2.163000000     2.213000000     2.773000000
H    -1.394000000     2.764000000     2.918000000
H    -2.290000000     2.223000000     1.824000000
O    -0.043000000     4.085000000     3.415000000
H     0.447000000     3.672000000     4.126000000
H     0.630000000     4.449000000     2.840000000
O    -3.804000000    -3.087000000     3.581000000
H    -4.700000000    -2.833000000     3.360000000
H    -3.331000000    -3.044000000     2.750000000
O    -5.540000000     0.982000000    -0.880000000
H    -4.621000000     0.720000000    -0.833000000
H    -5.759000000     0.921000000    -1.810000000
O    -1.679000000    -4.280000000    -4.558000000
H    -1.698000000    -4.505000000    -3.628000000
H    -2.057000000    -5.042000000    -4.997000000
O     5.104000000     4.532000000    -2.236000000
H     5.605000000     3.911000000    -2.765000000
H     4.221000000     4.503000000    -2.605000000
O     2.614000000    -1.401000000     1.578000000
H     3.188000000    -1.158000000     2.305000000
H     1.877000000    -0.795000000     1.641000000
O     0.682000000    -6.519000000     3.056000000
H     0.491000000    -6.574000000     3.993000000
H     0.716000000    -5.580000000     2.873000000
O     2.367000000     4.943000000     2.547000000
H     2.374000000     5.294000000     1.657000000
H     3.054000000     5.429000000     3.002000000
O    -4.210000000    -1.300000000     0.343000000
H    -3.783000000    -2.145000000     0.480000000
H    -4.792000000    -1.444000000    -0.404000000
O    -2.546000000     1.307000000     5.213000000
H    -2.048000000     0.490000000     5.202000000
H    -2.445000000     1.661000000     4.329000000
O     0.240000000    -3.335000000     5.773000000
H    -0.368000000    -3.754000000     5.163000000
H     1.022000000    -3.162000000     5.250000000
O    -2.543000000     3.752000000    -2.236000000
H    -2.124000000     4.497000000    -2.667000000
H    -3.474000000     3.975000000    -2.223000000
O    -2.101000000     2.347000000     0.050000000
H    -2.279000000     2.651000000    -0.840000000
H    -1.433000000     1.670000000    -0.057000000
O     2.027000000     3.224000000     4.872000000
H     2.422000000     3.938000000     5.373000000
H     2.312000000     3.378000000     3.971000000
O     6.409000000    -0.716000000    -1.025000000
H     6.878000000    -0.075000000    -0.492000000
H     5.585000000    -0.284000000    -1.250000000
O     5.350000000     4.016000000     2.218000000
H     4.437000000     3.965000000     1.936000000
H     5.358000000     3.604000000     3.082000000
O    -4.479000000    -5.308000000    -3.066000000
H    -3.579000000    -5.535000000    -2.833000000
H    -4.397000000    -4.814000000    -3.882000000
O    -1.248000000    -0.874000000     6.230000000
H    -0.816000000    -1.719000000     6.357000000
H    -1.767000000    -0.749000000     7.024000000
O     0.603000000    -1.277000000    -6.393000000
H     1.262000000    -0.586000000    -6.470000000
H     0.763000000    -1.666000000    -5.533000000
O    -2.505000000     5.543000000     2.545000000
H    -1.959000000     5.676000000     1.770000000
H    -2.132000000     4.771000000     2.971000000
O     4.539000000     1.438000000     0.771000000
H     3.915000000     1.763000000     0.122000000
H     4.004000000     1.236000000     1.538000000
O    -0.952000000     5.686000000     0.331000000
H    -1.055000000     5.187000000    -0.479000000
H    -0.503000000     6.488000000     0.063000000
