144
-2817.83389
O     1.857000000     5.682000000    -1.292000000
H     2.812000000     5.645000000    -1.349000000
H     1.596000000     6.253000000    -2.014000000
O    -3.242000000     0.298000000     4.374000000
H    -3.113000000    -0.059000000     3.495000000
H    -2.502000000     0.891000000     4.503000000
O    -4.083000000    -1.879000000     6.688000000
H    -4.589000000    -2.674000000     6.519000000
H    -3.791000000    -1.593000000     5.822000000
O    -5.048000000    -2.462000000     3.014000000
H    -4.595000000    -3.301000000     3.092000000
H    -4.421000000    -1.891000000     2.569000000
O    -6.655000000    -1.648000000    -1.384000000
H    -7.288000000    -2.149000000    -0.870000000
H    -5.900000000    -2.230000000    -1.468000000
O     6.729000000     0.532000000    -0.291000000
H     6.078000000     0.213000000     0.334000000
H     7.537000000     0.081000000    -0.046000000
O     2.445000000     2.372000000     4.664000000
H     1.924000000     2.950000000     4.106000000
H     2.426000000     2.789000000     5.525000000
O    -2.385000000    -3.220000000     4.335000000
H    -1.557000000    -2.964000000     4.741000000
H    -2.628000000    -2.469000000     3.793000000
O     5.605000000    -0.080000000     2.139000000
H     6.333000000    -0.574000000     2.516000000
H     5.443000000     0.624000000     2.767000000
O     3.613000000    -1.502000000     1.085000000
H     4.246000000    -0.870000000     1.426000000
H     2.804000000    -1.310000000     1.559000000
O    -0.766000000    -4.810000000     1.057000000
H    -1.238000000    -3.980000000     0.992000000
H    -0.703000000    -5.122000000     0.154000000
O    -0.501000000    -3.888000000    -4.216000000
H    -0.432000000    -2.934000000    -4.205000000
H    -0.210000000    -4.139000000    -5.093000000
O     0.433000000     0.671000000     4.947000000
H     1.218000000     1.218000000     4.945000000
H    -0.250000000     1.229000000     4.576000000
O     0.121000000     2.262000000    -3.386000000
H     0.806000000     2.862000000    -3.680000000
H     0.433000000     1.938000000    -2.541000000
O    -6.171000000     0.748000000     0.049000000
H    -6.723000000     0.509000000     0.794000000
H    -6.165000000    -0.033000000    -0.505000000
O     1.738000000    -6.374000000     0.592000000
H     1.190000000    -5.589000000     0.580000000
H     1.178000000    -7.063000000     0.233000000
O    -0.401000000    -1.103000000    -4.933000000
H    -0.937000000    -0.468000000    -4.457000000
H    -0.784000000    -1.130000000    -5.810000000
O     0.921000000    -4.267000000     3.348000000
H     0.849000000    -3.329000000     3.523000000
H     0.331000000    -4.419000000     2.610000000
O    -5.702000000     1.401000000     4.761000000
H    -4.922000000     1.069000000     4.316000000
H    -6.006000000     2.121000000     4.208000000
O    -1.901000000    -7.165000000    -1.513000000
H    -1.278000000    -6.464000000    -1.704000000
H    -1.481000000    -7.677000000    -0.822000000
O     2.676000000     3.385000000    -3.862000000
H     2.491000000     4.011000000    -4.562000000
H     3.064000000     3.913000000    -3.165000000
O     3.735000000    -3.426000000    -3.333000000
H     3.406000000    -4.196000000    -2.870000000
H     4.297000000    -2.985000000    -2.697000000
O    -3.493000000    -3.168000000    -3.470000000
H    -3.516000000    -3.055000000    -2.520000000
H    -2.673000000    -3.632000000    -3.637000000
O    -1.181000000     2.702000000     3.909000000
H    -2.075000000     2.996000000     3.732000000
H    -0.632000000     3.447000000     3.666000000
O    -3.328000000    -4.911000000     2.406000000
H    -2.885000000    -4.764000000     1.571000000
H    -2.812000000    -4.415000000     3.042000000
O    -4.087000000     1.416000000     1.680000000
H    -4.866000000     1.455000000     1.124000000
H    -3.820000000     0.497000000     1.652000000
O    -0.019000000    -5.162000000    -1.906000000
H     0.687000000    -4.631000000    -1.538000000
H    -0.147000000    -4.813000000    -2.788000000
O     4.739000000     0.131000000    -4.776000000
H     4.995000000     0.838000000    -5.368000000
H     3.782000000     0.149000000    -4.781000000
O     0.890000000    -1.446000000     2.639000000
H     0.543000000    -0.983000000     1.876000000
H     0.743000000    -0.846000000     3.370000000
O    -7.215000000    -0.980000000     4.426000000
H    -6.494000000    -1.490000000     4.056000000
H    -6.789000000    -0.235000000     4.849000000
O     5.353000000     5.015000000     0.801000000
H     6.200000000     5.403000000     0.580000000
H     4.929000000     4.870000000    -0.045000000
O     2.221000000    -2.621000000    -5.339000000
H     2.809000000    -1.924000000    -5.629000000
H     2.629000000    -2.964000000    -4.544000000
O     2.363000000     1.402000000    -5.715000000
H     1.549000000     1.295000000    -5.224000000
H     2.815000000     2.122000000    -5.275000000
O    -7.044000000    -4.251000000     2.520000000
H    -6.329000000    -3.617000000     2.573000000
H    -6.953000000    -4.782000000     3.311000000
O    -1.256000000     5.537000000    -3.272000000
H    -1.647000000     4.764000000    -2.865000000
H    -0.798000000     5.978000000    -2.557000000
O    -2.105000000     3.785000000    -1.186000000
H    -2.047000000     3.141000000    -0.480000000
H    -3.000000000     3.700000000    -1.515000000
O     5.647000000    -1.301000000    -2.358000000
H     5.274000000    -0.969000000    -3.174000000
H     5.964000000    -0.520000000    -1.905000000
O     4.432000000     5.701000000    -2.119000000
H     4.785000000     6.591000000    -2.129000000
H     5.077000000     5.183000000    -2.601000000
O     5.899000000     3.923000000    -3.660000000
H     6.688000000     4.339000000    -4.007000000
H     5.584000000     3.372000000    -4.376000000
O    -4.811000000    -7.191000000     2.717000000
H    -4.359000000    -7.692000000     2.039000000
H    -4.747000000    -6.281000000     2.425000000
O    -3.660000000    -5.001000000     6.256000000
H    -3.305000000    -4.419000000     5.584000000
H    -4.513000000    -4.626000000     6.471000000
O    -0.384000000    -1.742000000     5.698000000
H     0.367000000    -1.983000000     6.240000000
H    -0.171000000    -0.869000000     5.368000000
O     6.457000000     3.120000000    -0.981000000
H     6.457000000     2.179000000    -0.806000000
H     6.076000000     3.201000000    -1.856000000
O    -4.567000000    -3.270000000    -0.535000000
H    -4.889000000    -4.171000000    -0.487000000
H    -3.735000000    -3.288000000    -0.064000000
O     2.139000000    -3.621000000    -0.781000000
H     1.797000000    -2.838000000    -1.212000000
H     2.831000000    -3.295000000    -0.205000000
O     0.274000000     4.854000000     2.944000000
H     0.615000000     5.744000000     3.031000000
H     0.143000000     4.738000000     2.003000000
O    -3.461000000     3.775000000     2.976000000
H    -3.796000000     3.014000000     2.502000000
H    -4.137000000     4.444000000     2.864000000
O     0.027000000     4.726000000     0.184000000
H    -0.677000000     4.573000000    -0.446000000
H     0.710000000     5.166000000    -0.322000000
