144
-2806.73773
O     3.343000000     1.247000000    -1.157000000
H     2.727000000     0.635000000    -0.754000000
H     3.220000000     1.126000000    -2.099000000
O    -2.122000000    -2.141000000     3.869000000
H    -1.577000000    -2.330000000     3.105000000
H    -1.497000000    -1.963000000     4.572000000
O     2.693000000    -5.461000000     5.683000000
H     2.508000000    -4.805000000     5.011000000
H     2.770000000    -6.284000000     5.201000000
O    -0.507000000    -1.879000000     5.923000000
H     0.390000000    -2.131000000     6.145000000
H    -0.799000000    -1.351000000     6.666000000
O    -4.807000000    -2.264000000     5.370000000
H    -4.024000000    -2.334000000     4.823000000
H    -4.810000000    -1.355000000     5.670000000
O     3.567000000     4.246000000     2.537000000
H     3.003000000     4.608000000     3.221000000
H     2.963000000     3.992000000     1.839000000
O     0.496000000     3.919000000    -4.820000000
H     1.388000000     3.577000000    -4.765000000
H     0.321000000     4.274000000    -3.949000000
O    -3.581000000     4.883000000    -1.161000000
H    -3.515000000     5.662000000    -0.608000000
H    -4.216000000     5.122000000    -1.836000000
O    -2.602000000     5.073000000    -5.087000000
H    -2.858000000     4.266000000    -4.641000000
H    -1.655000000     5.129000000    -4.956000000
O    -4.558000000    -4.957000000     3.490000000
H    -5.014000000    -5.798000000     3.517000000
H    -3.758000000    -5.101000000     3.995000000
O     2.489000000     3.807000000    -0.091000000
H     2.709000000     4.405000000    -0.804000000
H     2.739000000     2.942000000    -0.417000000
O     1.999000000    -3.578000000     3.884000000
H     2.230000000    -2.675000000     4.100000000
H     1.254000000    -3.499000000     3.288000000
O    -0.719000000    -1.858000000    -4.484000000
H    -1.509000000    -1.529000000    -4.055000000
H    -0.996000000    -2.054000000    -5.379000000
O    -2.991000000     2.514000000    -4.492000000
H    -2.127000000     2.169000000    -4.719000000
H    -3.556000000     1.743000000    -4.457000000
O     3.372000000    -3.984000000     1.432000000
H     3.245000000    -3.575000000     2.288000000
H     2.506000000    -3.961000000     1.024000000
O     2.630000000    -0.827000000     4.332000000
H     3.378000000    -0.748000000     3.740000000
H     2.291000000     0.065000000     4.409000000
O     2.772000000    -1.857000000    -1.463000000
H     2.201000000    -2.379000000    -2.026000000
H     2.430000000    -1.997000000    -0.580000000
O     1.741000000    -3.063000000    -4.006000000
H     1.950000000    -3.794000000    -4.588000000
H     0.885000000    -2.756000000    -4.304000000
O     4.952000000    -6.293000000     2.210000000
H     5.224000000    -5.863000000     3.021000000
H     4.327000000    -5.685000000     1.814000000
O    -0.098000000    -5.430000000     6.118000000
H     0.837000000    -5.244000000     6.035000000
H    -0.428000000    -5.404000000     5.220000000
O     4.873000000     3.355000000    -3.560000000
H     4.071000000     2.833000000    -3.592000000
H     5.134000000     3.447000000    -4.476000000
O    -2.112000000    -6.726000000     3.695000000
H    -2.526000000    -6.820000000     2.837000000
H    -1.202000000    -6.507000000     3.499000000
O     2.141000000    -6.938000000    -1.194000000
H     2.480000000    -6.533000000    -1.993000000
H     2.922000000    -7.210000000    -0.713000000
O     4.690000000    -3.766000000    -2.795000000
H     4.154000000    -3.142000000    -2.305000000
H     5.470000000    -3.268000000    -3.042000000
O    -1.488000000    -4.333000000    -2.807000000
H    -1.030000000    -4.937000000    -2.222000000
H    -0.813000000    -4.030000000    -3.414000000
O    -2.960000000     0.789000000     3.454000000
H    -3.720000000     0.922000000     4.021000000
H    -3.160000000    -0.011000000     2.970000000
O    -1.739000000    -7.226000000     1.085000000
H    -1.506000000    -6.498000000     0.510000000
H    -2.528000000    -7.600000000     0.691000000
O     1.635000000     4.696000000     4.249000000
H     2.025000000     4.667000000     5.123000000
H     0.950000000     4.028000000     4.270000000
O     0.984000000     0.012000000    -5.847000000
H     0.531000000    -0.784000000    -5.567000000
H     0.842000000     0.049000000    -6.793000000
O    -3.823000000    -2.999000000     1.626000000
H    -3.335000000    -3.295000000     2.394000000
H    -4.044000000    -2.088000000     1.820000000
O    -0.696000000     1.610000000     4.953000000
H    -1.595000000     1.433000000     4.678000000
H    -0.787000000     2.127000000     5.754000000
O     1.892000000     1.487000000     5.626000000
H     0.939000000     1.512000000     5.532000000
H     2.037000000     1.398000000     6.568000000
O     5.649000000    -3.491000000     0.084000000
H     4.980000000    -3.781000000     0.705000000
H     5.459000000    -2.564000000    -0.056000000
O    -3.510000000    -0.245000000    -3.294000000
H    -3.983000000    -0.904000000    -3.802000000
H    -3.188000000    -0.719000000    -2.527000000
O    -3.550000000    -2.370000000    -1.366000000
H    -2.939000000    -2.922000000    -1.854000000
H    -3.798000000    -2.900000000    -0.608000000
O     1.474000000     8.265000000    -1.117000000
H     1.103000000     7.557000000    -0.589000000
H     1.515000000     7.906000000    -2.003000000
O     2.871000000     0.008000000    -3.444000000
H     2.930000000    -0.796000000    -2.928000000
H     2.232000000    -0.192000000    -4.128000000
O    -6.140000000     2.501000000    -2.685000000
H    -6.922000000     2.288000000    -2.176000000
H    -5.422000000     2.444000000    -2.055000000
O     2.827000000     2.368000000    -5.183000000
H     3.670000000     1.925000000    -5.277000000
H     2.216000000     1.831000000    -5.687000000
O     0.249000000    -5.740000000     2.656000000
H     0.166000000    -4.815000000     2.888000000
H     0.377000000    -5.739000000     1.708000000
O     2.426000000    -1.392000000     7.002000000
H     3.035000000    -2.106000000     7.193000000
H     2.602000000    -1.166000000     6.088000000
O    -0.278000000    -5.543000000    -0.613000000
H     0.474000000    -6.099000000    -0.818000000
H     0.103000000    -4.767000000    -0.202000000
O     2.515000000     5.132000000    -2.527000000
H     2.100000000     5.630000000    -3.231000000
H     3.402000000     4.962000000    -2.844000000
O    -3.822000000     2.246000000    -1.110000000
H    -3.629000000     3.151000000    -0.866000000
H    -3.162000000     2.029000000    -1.767000000
O    -3.650000000    -0.406000000     0.859000000
H    -3.703000000     0.486000000     0.514000000
H    -3.144000000    -0.886000000     0.203000000
O    -3.158000000     3.459000000     2.608000000
H    -3.093000000     3.450000000     1.654000000
H    -3.300000000     2.543000000     2.847000000
O    -0.956000000     5.695000000    -2.852000000
H    -0.718000000     6.591000000    -2.613000000
H    -1.498000000     5.389000000    -2.124000000
O     0.477000000     5.940000000     0.118000000
H     1.179000000     5.449000000    -0.308000000
H    -0.231000000     5.304000000     0.221000000
