144
-2820.09342
O     3.690000000     0.703000000     0.480000000
H     3.119000000     0.197000000    -0.097000000
H     4.101000000     1.349000000    -0.095000000
O    -1.128000000    -2.662000000     4.277000000
H    -0.797000000    -2.897000000     3.411000000
H    -0.504000000    -2.015000000     4.605000000
O     2.993000000    -4.329000000     6.152000000
H     2.639000000    -4.128000000     5.286000000
H     2.329000000    -4.885000000     6.560000000
O     0.187000000    -0.451000000     5.239000000
H     1.060000000    -0.175000000     5.520000000
H    -0.268000000     0.365000000     5.033000000
O    -3.788000000    -3.245000000     3.642000000
H    -3.048000000    -2.795000000     4.050000000
H    -4.561000000    -2.810000000     4.002000000
O     0.785000000     7.310000000    -4.773000000
H     1.040000000     8.111000000    -4.316000000
H     0.441000000     6.741000000    -4.085000000
O    -1.670000000    -7.949000000    -2.934000000
H    -1.648000000    -7.036000000    -2.648000000
H    -0.996000000    -8.381000000    -2.409000000
O    -4.350000000     3.199000000    -3.351000000
H    -3.565000000     3.699000000    -3.126000000
H    -5.054000000     3.848000000    -3.356000000
O    -1.983000000     4.941000000    -3.146000000
H    -1.564000000     4.182000000    -3.551000000
H    -1.303000000     5.324000000    -2.592000000
O    -1.246000000    -4.511000000     6.235000000
H    -1.489000000    -3.795000000     5.649000000
H    -0.714000000    -4.096000000     6.914000000
O     4.472000000     6.439000000    -0.635000000
H     5.345000000     6.591000000    -0.998000000
H     4.565000000     5.642000000    -0.114000000
O     4.377000000     3.732000000     0.115000000
H     3.974000000     3.826000000    -0.748000000
H     5.106000000     3.128000000    -0.027000000
O     1.704000000    -3.696000000     3.691000000
H     0.906000000    -3.356000000     3.287000000
H     2.041000000    -4.330000000     3.058000000
O     4.804000000    -5.407000000     1.814000000
H     4.477000000    -4.953000000     1.038000000
H     4.173000000    -6.111000000     1.963000000
O    -1.012000000     2.515000000    -4.088000000
H    -1.576000000     2.145000000    -4.767000000
H    -1.233000000     2.022000000    -3.298000000
O     2.146000000    -4.103000000    -1.724000000
H     1.332000000    -3.886000000    -1.270000000
H     2.021000000    -5.004000000    -2.023000000
O    -2.990000000    -1.650000000     6.592000000
H    -2.933000000    -1.212000000     7.441000000
H    -2.699000000    -0.990000000     5.962000000
O     3.698000000    -1.103000000     4.268000000
H     3.239000000    -1.651000000     3.631000000
H     4.622000000    -1.187000000     4.033000000
O    -3.453000000     5.092000000     1.984000000
H    -2.752000000     4.732000000     2.528000000
H    -2.999000000     5.626000000     1.332000000
O     1.999000000    -2.942000000    -4.214000000
H     1.056000000    -2.847000000    -4.348000000
H     2.081000000    -3.280000000    -3.323000000
O     3.240000000     2.496000000     3.030000000
H     3.021000000     1.870000000     2.340000000
H     2.427000000     2.602000000     3.524000000
O    -0.443000000    -4.446000000    -4.214000000
H     0.083000000    -4.530000000    -5.009000000
H    -1.347000000    -4.409000000    -4.527000000
O    -0.419000000    -6.998000000     5.038000000
H    -0.374000000    -6.168000000     5.513000000
H    -1.350000000    -7.221000000     5.033000000
O    -0.042000000    -8.487000000    -0.867000000
H     0.599000000    -9.193000000    -0.777000000
H    -0.379000000    -8.356000000     0.019000000
O     4.341000000    -3.137000000    -5.643000000
H     3.598000000    -2.920000000    -5.080000000
H     5.102000000    -3.091000000    -5.065000000
O    -2.997000000    -3.536000000    -4.675000000
H    -3.266000000    -2.713000000    -5.083000000
H    -3.247000000    -3.441000000    -3.756000000
O    -3.867000000     1.627000000     3.324000000
H    -3.627000000     1.513000000     2.404000000
H    -4.824000000     1.628000000     3.324000000
O    -3.541000000    -5.976000000     2.416000000
H    -3.777000000    -5.090000000     2.690000000
H    -2.720000000    -5.868000000     1.936000000
O     0.518000000    -1.209000000    -6.564000000
H     0.903000000    -1.961000000    -7.013000000
H    -0.426000000    -1.367000000    -6.597000000
O    -4.841000000    -2.576000000     0.950000000
H    -4.590000000    -2.529000000     1.873000000
H    -4.091000000    -2.213000000     0.479000000
O    -1.471000000     1.601000000     4.656000000
H    -2.218000000     1.389000000     4.096000000
H    -1.863000000     1.857000000     5.491000000
O     1.179000000    -6.749000000     2.914000000
H     0.456000000    -6.420000000     2.381000000
H     0.760000000    -7.077000000     3.710000000
O    -1.854000000     6.601000000     0.484000000
H    -1.644000000     7.140000000    -0.279000000
H    -1.195000000     6.841000000     1.135000000
O     0.847000000     3.092000000     4.182000000
H     0.143000000     2.498000000     4.443000000
H     0.395000000     3.859000000     3.832000000
O    -2.460000000     1.136000000    -5.889000000
H    -3.351000000     0.811000000    -5.764000000
H    -2.383000000     1.267000000    -6.834000000
O     4.647000000    -3.673000000    -0.284000000
H     3.852000000    -3.820000000    -0.797000000
H     4.743000000    -2.721000000    -0.260000000
O    -3.143000000    -3.570000000    -1.807000000
H    -3.042000000    -3.053000000    -1.008000000
H    -2.381000000    -4.149000000    -1.815000000
O     2.319000000    -0.244000000    -4.473000000
H     2.460000000    -0.991000000    -3.891000000
H     1.985000000    -0.632000000    -5.282000000
O     1.760000000     2.294000000    -4.236000000
H     2.116000000     1.416000000    -4.373000000
H     0.811000000     2.178000000    -4.289000000
O     1.837000000    -6.862000000    -2.073000000
H     2.484000000    -7.250000000    -1.483000000
H     1.020000000    -7.314000000    -1.863000000
O    -0.979000000    -5.936000000     1.281000000
H    -0.409000000    -5.167000000     1.317000000
H    -1.118000000    -6.087000000     0.346000000
O    -0.963000000    -5.543000000    -1.846000000
H    -0.613000000    -5.206000000    -2.671000000
H    -0.616000000    -4.952000000    -1.179000000
O     3.293000000     3.830000000    -2.577000000
H     2.732000000     3.108000000    -2.858000000
H     3.802000000     4.055000000    -3.357000000
O    -4.675000000     0.425000000    -1.727000000
H    -5.240000000     1.076000000    -2.142000000
H    -5.200000000    -0.376000000    -1.715000000
O    -3.434000000     1.990000000     0.553000000
H    -3.223000000     2.904000000     0.360000000
H    -3.749000000     1.636000000    -0.278000000
O    -2.920000000    -1.131000000    -0.192000000
H    -3.235000000    -0.667000000    -0.968000000
H    -2.346000000    -0.503000000     0.246000000
O     0.018000000     6.236000000    -2.043000000
H    -0.546000000     6.979000000    -1.830000000
H     0.774000000     6.336000000    -1.465000000
O     2.604000000     7.392000000     1.189000000
H     2.810000000     6.551000000     1.596000000
H     3.146000000     7.417000000     0.401000000
