144
-2790.11441
O     3.846000000    -1.184000000    -4.173000000
H     4.331000000    -1.412000000    -4.966000000
H     2.926000000    -1.281000000    -4.419000000
O     4.786000000    -0.783000000     4.118000000
H     4.072000000    -1.269000000     3.705000000
H     5.182000000    -0.286000000     3.402000000
O    -3.218000000    -2.411000000     1.748000000
H    -3.611000000    -3.157000000     2.200000000
H    -2.300000000    -2.424000000     2.019000000
O     2.582000000     2.365000000     6.058000000
H     2.050000000     2.689000000     6.785000000
H     2.113000000     1.593000000     5.742000000
O    -5.990000000     1.678000000     0.730000000
H    -5.849000000     0.895000000     1.262000000
H    -5.895000000     1.374000000    -0.173000000
O     7.641000000    -4.141000000     1.952000000
H     7.545000000    -3.475000000     2.633000000
H     6.790000000    -4.160000000     1.514000000
O     3.518000000    -5.774000000     2.481000000
H     3.897000000    -6.231000000     3.231000000
H     3.564000000    -6.409000000     1.766000000
O     1.388000000    -1.582000000    -5.140000000
H     0.744000000    -2.029000000    -4.590000000
H     1.490000000    -2.155000000    -5.901000000
O     0.128000000    -5.699000000     0.105000000
H     1.062000000    -5.867000000    -0.013000000
H     0.090000000    -5.008000000     0.767000000
O     3.235000000     2.092000000    -5.101000000
H     3.052000000     1.214000000    -4.767000000
H     4.067000000     2.334000000    -4.696000000
O    -4.183000000     1.283000000    -4.447000000
H    -4.592000000     0.590000000    -4.965000000
H    -3.243000000     1.136000000    -4.550000000
O    -6.540000000     0.764000000    -1.686000000
H    -6.647000000     1.501000000    -2.287000000
H    -6.464000000    -0.001000000    -2.256000000
O    -3.045000000     3.695000000    -4.975000000
H    -3.274000000     4.135000000    -5.793000000
H    -3.701000000     3.003000000    -4.883000000
O    -1.545000000     0.095000000    -4.810000000
H    -1.929000000    -0.740000000    -5.076000000
H    -0.781000000     0.199000000    -5.376000000
O    -0.906000000    -0.930000000     5.489000000
H    -1.713000000    -0.415000000     5.499000000
H    -0.772000000    -1.183000000     6.402000000
O     1.378000000    -3.128000000     6.141000000
H     0.884000000    -2.322000000     5.990000000
H     1.352000000    -3.585000000     5.300000000
O     6.805000000    -0.600000000    -1.491000000
H     7.489000000     0.039000000    -1.289000000
H     7.262000000    -1.440000000    -1.516000000
O     3.798000000    -3.339000000    -1.221000000
H     3.555000000    -3.000000000    -0.359000000
H     3.888000000    -2.560000000    -1.769000000
O     5.211000000    -3.658000000     1.355000000
H     4.660000000    -4.351000000     1.721000000
H     4.688000000    -2.862000000     1.448000000
O    -0.140000000     2.895000000     3.134000000
H     0.057000000     2.625000000     4.031000000
H    -0.133000000     2.080000000     2.632000000
O    -4.657000000     4.231000000     1.847000000
H    -3.993000000     4.588000000     1.257000000
H    -4.974000000     3.445000000     1.403000000
O     2.940000000    -5.895000000    -1.818000000
H     3.248000000    -5.028000000    -1.557000000
H     3.345000000    -6.047000000    -2.672000000
O    -2.517000000    -2.821000000    -5.969000000
H    -2.906000000    -3.652000000    -6.244000000
H    -2.287000000    -2.958000000    -5.050000000
O    -2.412000000     2.196000000     6.348000000
H    -2.704000000     1.759000000     5.548000000
H    -3.155000000     2.121000000     6.946000000
O    -5.599000000    -0.779000000     2.368000000
H    -4.824000000    -1.287000000     2.129000000
H    -5.652000000    -0.856000000     3.320000000
O     2.914000000     2.605000000    -1.498000000
H     2.853000000     2.328000000    -0.583000000
H     3.668000000     2.126000000    -1.842000000
O    -1.379000000    -3.725000000    -3.355000000
H    -0.467000000    -4.013000000    -3.323000000
H    -1.490000000    -3.194000000    -2.566000000
O     1.582000000     0.242000000     4.547000000
H     0.767000000    -0.132000000     4.882000000
H     1.917000000    -0.418000000     3.941000000
O    -1.607000000    -4.010000000     5.090000000
H    -2.193000000    -4.666000000     5.469000000
H    -1.801000000    -3.208000000     5.576000000
O    -1.492000000     5.084000000     4.043000000
H    -1.299000000     4.157000000     3.906000000
H    -0.833000000     5.545000000     3.523000000
O    -5.701000000     4.501000000    -2.096000000
H    -4.850000000     4.235000000    -2.445000000
H    -6.323000000     3.889000000    -2.490000000
O    -6.447000000    -1.311000000    -3.472000000
H    -5.851000000    -1.147000000    -4.203000000
H    -7.113000000    -1.896000000    -3.831000000
O    -6.552000000     2.592000000    -3.722000000
H    -6.388000000     3.306000000    -4.338000000
H    -5.871000000     1.948000000    -3.917000000
O     0.434000000     5.236000000     1.313000000
H     0.356000000     5.100000000     0.368000000
H     0.205000000     4.390000000     1.697000000
O    -0.543000000     2.972000000    -4.234000000
H    -0.484000000     2.158000000    -3.733000000
H    -1.473000000     3.056000000    -4.445000000
O    -2.368000000     4.727000000     0.178000000
H    -1.762000000     4.086000000    -0.194000000
H    -2.758000000     5.157000000    -0.582000000
O    -0.597000000    -3.840000000     2.542000000
H     0.311000000    -3.774000000     2.838000000
H    -1.102000000    -3.965000000     3.345000000
O     4.855000000     0.822000000    -2.609000000
H     4.490000000     0.014000000    -2.968000000
H     5.638000000     0.541000000    -2.135000000
O    -0.089000000     5.756000000    -3.798000000
H    -0.288000000     4.826000000    -3.905000000
H    -0.643000000     6.195000000    -4.444000000
O     1.556000000    -4.216000000    -3.603000000
H     1.829000000    -4.828000000    -4.286000000
H     2.209000000    -4.323000000    -2.911000000
O     4.358000000    -0.078000000     6.501000000
H     4.666000000    -0.253000000     5.612000000
H     3.861000000     0.736000000     6.426000000
O     6.922000000    -3.522000000    -0.964000000
H     7.514000000    -4.197000000    -0.631000000
H     6.142000000    -3.596000000    -0.414000000
O     5.320000000     0.336000000     1.422000000
H     6.200000000     0.032000000     1.201000000
H     4.755000000    -0.416000000     1.245000000
O     1.855000000    -3.897000000     3.569000000
H     2.156000000    -3.081000000     3.171000000
H     2.482000000    -4.556000000     3.270000000
O    -3.013000000     5.923000000    -2.207000000
H    -2.745000000     6.765000000    -1.839000000
H    -2.341000000     5.720000000    -2.857000000
O    -1.697000000    -2.322000000    -1.009000000
H    -2.336000000    -2.391000000    -0.299000000
H    -1.157000000    -1.569000000    -0.773000000
O     0.252000000     4.097000000    -1.319000000
H     0.839000000     3.341000000    -1.338000000
H     0.337000000     4.488000000    -2.189000000
O     3.488000000     2.187000000     1.482000000
H     4.312000000     1.700000000     1.491000000
H     2.933000000     1.732000000     2.116000000
