144
-2807.51657
O     3.389000000    -1.302000000    -4.323000000
H     4.198000000    -1.709000000    -4.634000000
H     3.495000000    -1.255000000    -3.373000000
O    -4.117000000    -3.582000000     1.438000000
H    -3.781000000    -3.008000000     2.126000000
H    -4.708000000    -3.027000000     0.930000000
O     4.339000000     2.869000000     6.143000000
H     4.377000000     3.068000000     7.079000000
H     3.512000000     2.401000000     6.032000000
O    -2.871000000     2.012000000     2.980000000
H    -2.815000000     1.786000000     2.052000000
H    -3.712000000     1.653000000     3.264000000
O     6.856000000    -1.202000000     0.670000000
H     7.116000000    -0.498000000     1.264000000
H     6.360000000    -1.809000000     1.220000000
O     4.283000000    -4.117000000     4.157000000
H     4.972000000    -3.679000000     4.658000000
H     4.617000000    -5.003000000     4.016000000
O     1.084000000    -1.849000000    -5.801000000
H     1.809000000    -1.770000000    -5.181000000
H     0.940000000    -0.957000000    -6.117000000
O    -1.480000000    -4.715000000     1.914000000
H    -0.823000000    -4.291000000     1.362000000
H    -2.318000000    -4.397000000     1.577000000
O    -5.529000000    -1.667000000    -4.348000000
H    -4.887000000    -2.375000000    -4.409000000
H    -5.710000000    -1.429000000    -5.258000000
O    -5.583000000     1.446000000     0.187000000
H    -5.438000000     0.594000000     0.597000000
H    -6.422000000     1.742000000     0.541000000
O    -1.095000000     0.970000000    -5.492000000
H    -0.533000000     0.968000000    -6.267000000
H    -1.347000000     0.054000000    -5.377000000
O    -1.608000000    -1.548000000    -4.919000000
H    -2.116000000    -2.261000000    -4.531000000
H    -0.704000000    -1.861000000    -4.901000000
O    -2.853000000    -1.804000000     3.444000000
H    -2.923000000    -0.926000000     3.819000000
H    -2.281000000    -2.277000000     4.049000000
O     7.151000000     3.297000000     1.706000000
H     6.713000000     4.139000000     1.584000000
H     6.644000000     2.684000000     1.174000000
O    -1.799000000    -2.071000000     7.803000000
H    -1.506000000    -1.639000000     7.001000000
H    -2.741000000    -1.904000000     7.836000000
O     4.014000000    -1.697000000    -1.265000000
H     4.028000000    -1.193000000    -0.451000000
H     3.957000000    -2.609000000    -0.982000000
O     4.666000000    -2.608000000     1.964000000
H     4.142000000    -2.984000000     2.672000000
H     4.320000000    -1.723000000     1.854000000
O    -0.353000000     2.084000000     5.919000000
H     0.347000000     1.634000000     5.447000000
H    -0.727000000     2.687000000     5.276000000
O    -1.462000000     3.853000000     4.040000000
H    -2.102000000     3.148000000     3.935000000
H    -1.255000000     4.123000000     3.145000000
O    -2.497000000     3.714000000    -1.551000000
H    -2.853000000     3.212000000    -2.285000000
H    -1.565000000     3.805000000    -1.754000000
O    -6.266000000    -1.147000000     1.251000000
H    -6.606000000    -2.029000000     1.404000000
H    -6.884000000    -0.571000000     1.702000000
O     0.586000000    -3.858000000    -2.244000000
H     0.154000000    -3.896000000    -3.097000000
H     1.377000000    -4.386000000    -2.352000000
O    -2.369000000     3.609000000    -4.616000000
H    -2.258000000     4.382000000    -5.168000000
H    -1.935000000     2.905000000    -5.098000000
O    -4.764000000     0.187000000     3.481000000
H    -4.917000000    -0.405000000     2.745000000
H    -4.581000000    -0.393000000     4.220000000
O    -5.308000000     5.292000000    -2.834000000
H    -6.126000000     5.275000000    -2.338000000
H    -5.149000000     4.377000000    -3.065000000
O     2.886000000     2.957000000     1.096000000
H     2.888000000     2.999000000     0.140000000
H     3.432000000     2.199000000     1.304000000
O    -1.828000000    -5.364000000    -1.796000000
H    -1.021000000    -5.049000000    -1.389000000
H    -1.675000000    -6.298000000    -1.939000000
O    -3.420000000    -0.355000000     6.050000000
H    -3.982000000    -0.292000000     6.822000000
H    -3.265000000     0.553000000     5.790000000
O     1.789000000     0.723000000     5.157000000
H     1.816000000     0.237000000     5.981000000
H     1.901000000     0.054000000     4.481000000
O    -6.257000000    -0.321000000    -2.064000000
H    -5.751000000    -0.594000000    -2.830000000
H    -5.780000000     0.432000000    -1.717000000
O    -4.576000000     2.647000000    -3.399000000
H    -3.822000000     3.071000000    -3.806000000
H    -4.317000000     1.730000000    -3.309000000
O     3.036000000     3.318000000    -1.748000000
H     3.402000000     2.658000000    -2.337000000
H     2.896000000     4.084000000    -2.304000000
O    -7.382000000    -3.038000000    -1.775000000
H    -6.926000000    -2.196000000    -1.759000000
H    -7.648000000    -3.149000000    -2.687000000
O    -2.766000000    -3.782000000    -4.027000000
H    -2.491000000    -4.344000000    -3.303000000
H    -3.471000000    -4.269000000    -4.454000000
O    -1.435000000     4.597000000     1.354000000
H    -0.892000000     3.960000000     0.889000000
H    -2.334000000     4.355000000     1.129000000
O    -0.876000000    -3.808000000     4.921000000
H    -0.753000000    -3.996000000     5.851000000
H    -0.026000000    -3.479000000     4.629000000
O     1.993000000     0.054000000     7.722000000
H     2.694000000     0.358000000     8.298000000
H     1.256000000    -0.114000000     8.310000000
O     5.359000000     1.405000000     0.432000000
H     4.923000000     0.747000000     0.972000000
H     5.464000000     0.983000000    -0.421000000
O     3.781000000     1.549000000    -4.373000000
H     4.693000000     1.516000000    -4.084000000
H     3.546000000     0.635000000    -4.532000000
O     6.937000000    -2.824000000    -1.716000000
H     7.001000000    -2.380000000    -0.870000000
H     7.446000000    -2.275000000    -2.313000000
O     4.717000000     0.384000000     4.279000000
H     4.307000000     1.076000000     4.799000000
H     3.983000000    -0.131000000     3.945000000
O    -2.564000000    -1.843000000    -7.486000000
H    -2.404000000    -0.960000000    -7.820000000
H    -2.112000000    -1.866000000    -6.643000000
O     1.619000000    -3.124000000     4.071000000
H     1.963000000    -2.314000000     3.694000000
H     2.385000000    -3.693000000     4.153000000
O    -4.434000000     3.983000000     0.209000000
H    -4.562000000     3.035000000     0.245000000
H    -3.688000000     4.102000000    -0.378000000
O     0.153000000    -3.381000000     0.209000000
H    -0.097000000    -2.495000000     0.474000000
H     0.350000000    -3.305000000    -0.724000000
O     0.079000000     3.015000000    -0.294000000
H     0.168000000     2.203000000    -0.794000000
H     0.930000000     3.444000000    -0.381000000
O     2.016000000     3.233000000     3.866000000
H     2.086000000     2.292000000     4.026000000
H     2.346000000     3.350000000     2.975000000
O     7.574000000     1.322000000     4.117000000
H     6.750000000     0.878000000     4.316000000
H     7.390000000     1.827000000     3.325000000
