144
-2823.35121
O     5.744000000    -0.077000000     2.259000000
H     6.263000000    -0.566000000     2.897000000
H     4.847000000    -0.132000000     2.587000000
O    -2.833000000    -4.811000000    -0.654000000
H    -1.991000000    -4.725000000    -0.208000000
H    -2.626000000    -4.700000000    -1.582000000
O    -0.819000000     0.359000000     4.524000000
H    -0.712000000     0.612000000     5.441000000
H    -0.090000000     0.785000000     4.072000000
O     6.292000000     1.300000000    -0.222000000
H     6.077000000     0.555000000     0.340000000
H     6.094000000     2.069000000     0.312000000
O    -0.629000000     2.182000000    -6.678000000
H    -1.105000000     1.816000000    -7.424000000
H    -0.260000000     1.420000000    -6.232000000
O     2.343000000     2.198000000    -5.189000000
H     1.816000000     2.482000000    -4.443000000
H     1.837000000     1.488000000    -5.584000000
O    -0.189000000    -3.685000000    -4.720000000
H     0.098000000    -3.641000000    -5.632000000
H     0.568000000    -3.385000000    -4.216000000
O    -5.069000000    -2.553000000     3.415000000
H    -4.597000000    -2.324000000     2.614000000
H    -4.424000000    -2.437000000     4.113000000
O    -4.790000000     1.433000000    -1.994000000
H    -5.640000000     1.809000000    -2.223000000
H    -4.493000000     1.004000000    -2.796000000
O    -3.808000000     0.350000000    -4.402000000
H    -4.646000000     0.256000000    -4.854000000
H    -3.227000000    -0.270000000    -4.842000000
O     1.177000000    -0.155000000    -5.973000000
H     1.660000000    -0.719000000    -6.577000000
H     0.287000000    -0.508000000    -5.975000000
O     3.296000000     2.386000000     0.294000000
H     4.078000000     2.867000000     0.562000000
H     3.291000000     1.608000000     0.852000000
O    -0.053000000    -2.186000000     4.452000000
H    -0.735000000    -2.848000000     4.564000000
H    -0.519000000    -1.351000000     4.504000000
O    -0.147000000    -3.577000000    -0.345000000
H     0.698000000    -3.890000000    -0.024000000
H     0.019000000    -2.673000000    -0.612000000
O     4.304000000     3.515000000     4.383000000
H     3.880000000     2.922000000     3.763000000
H     5.162000000     3.694000000     3.996000000
O     3.434000000    -3.912000000     0.423000000
H     2.850000000    -3.798000000     1.172000000
H     3.195000000    -4.765000000     0.060000000
O    -1.878000000     2.249000000    -3.825000000
H    -2.305000000     3.054000000    -4.118000000
H    -2.443000000     1.547000000    -4.146000000
O     3.389000000    -3.093000000     4.843000000
H     3.577000000    -2.172000000     4.665000000
H     2.722000000    -3.330000000     4.198000000
O     3.948000000    -0.828000000    -3.675000000
H     3.993000000    -0.563000000    -4.593000000
H     3.777000000    -0.015000000    -3.199000000
O     0.864000000     2.491000000    -2.612000000
H     0.809000000     2.571000000    -1.660000000
H    -0.022000000     2.249000000    -2.884000000
O     5.448000000     1.275000000     6.108000000
H     5.921000000     1.539000000     6.898000000
H     4.769000000     1.941000000     6.001000000
O    -0.295000000     6.018000000     0.722000000
H    -0.237000000     5.081000000     0.537000000
H    -0.956000000     6.086000000     1.412000000
O    -5.933000000     0.080000000     0.278000000
H    -5.468000000     0.229000000    -0.545000000
H    -6.072000000    -0.867000000     0.306000000
O     1.108000000     2.908000000     5.659000000
H     0.671000000     2.241000000     6.189000000
H     1.372000000     2.446000000     4.864000000
O     1.924000000    -3.027000000    -3.460000000
H     2.556000000    -2.308000000    -3.477000000
H     2.439000000    -3.793000000    -3.205000000
O     1.352000000    -4.090000000     2.510000000
H     0.710000000    -3.474000000     2.863000000
H     1.170000000    -4.912000000     2.964000000
O    -1.925000000    -5.328000000    -3.514000000
H    -1.262000000    -4.674000000    -3.737000000
H    -1.425000000    -6.122000000    -3.327000000
O    -0.137000000     0.950000000     7.067000000
H     0.395000000     0.163000000     7.188000000
H    -0.502000000     1.128000000     7.934000000
O    -2.644000000     2.964000000    -1.172000000
H    -3.428000000     2.534000000    -1.515000000
H    -1.976000000     2.814000000    -1.841000000
O     1.847000000     6.094000000     3.974000000
H     1.797000000     7.038000000     3.826000000
H     1.780000000     5.710000000     3.100000000
O    -5.459000000     2.694000000     4.494000000
H    -4.740000000     2.387000000     3.942000000
H    -5.044000000     2.911000000     5.328000000
O    -0.361000000     3.648000000     3.134000000
H     0.050000000     4.316000000     3.683000000
H     0.126000000     2.847000000     3.329000000
O    -5.360000000    -2.452000000    -0.617000000
H    -4.774000000    -2.500000000    -1.373000000
H    -5.195000000    -3.261000000    -0.134000000
O    -1.507000000    -1.136000000    -5.668000000
H    -1.610000000    -1.661000000    -6.461000000
H    -1.101000000    -1.732000000    -5.038000000
O    -3.937000000     1.041000000     2.390000000
H    -4.304000000     0.578000000     1.638000000
H    -3.443000000     0.373000000     2.865000000
O    -2.200000000    -3.589000000     1.951000000
H    -2.532000000    -2.785000000     2.351000000
H    -1.681000000    -3.289000000     1.205000000
O     1.695000000    -1.174000000     6.448000000
H     2.474000000    -0.889000000     5.970000000
H     1.170000000    -1.639000000     5.797000000
O     6.695000000     3.659000000     3.079000000
H     7.404000000     3.140000000     3.458000000
H     6.583000000     3.305000000     2.197000000
O     0.211000000     3.082000000    -0.046000000
H    -0.675000000     2.720000000    -0.035000000
H     0.584000000     2.828000000     0.798000000
O     3.397000000     4.230000000     6.921000000
H     2.550000000     3.831000000     6.723000000
H     3.832000000     4.302000000     6.071000000
O     6.878000000    -0.355000000    -2.952000000
H     7.374000000    -0.836000000    -2.289000000
H     6.112000000    -0.023000000    -2.483000000
O    -3.458000000     5.250000000    -0.239000000
H    -3.132000000     4.583000000    -0.843000000
H    -3.324000000     4.872000000     0.630000000
O     3.882000000    -0.444000000     4.811000000
H     4.523000000     0.084000000     5.288000000
H     3.624000000     0.103000000     4.070000000
O    -3.455000000    -0.724000000     4.617000000
H    -2.615000000    -0.273000000     4.705000000
H    -4.008000000    -0.335000000     5.294000000
O     0.441000000     5.858000000     6.207000000
H     1.003000000     6.135000000     5.484000000
H     0.578000000     4.913000000     6.268000000
O     3.727000000     1.453000000    -2.403000000
H     3.710000000     1.381000000    -1.448000000
H     2.972000000     2.001000000    -2.615000000
O    -3.217000000     3.808000000     2.364000000
H    -2.290000000     3.724000000     2.584000000
H    -3.505000000     2.912000000     2.190000000
O    -5.439000000    -4.441000000    -3.499000000
H    -5.458000000    -4.668000000    -2.570000000
H    -4.641000000    -4.852000000    -3.830000000
