144
-2807.80179
O     4.120000000     4.218000000    -4.212000000
H     3.689000000     5.022000000    -3.924000000
H     3.792000000     4.076000000    -5.100000000
O    -0.951000000     1.299000000     4.937000000
H    -1.637000000     1.731000000     4.428000000
H    -1.394000000     0.563000000     5.359000000
O    -4.523000000    -1.366000000    -0.626000000
H    -4.334000000    -2.265000000    -0.359000000
H    -5.343000000    -1.151000000    -0.180000000
O    -0.516000000     5.990000000    -4.326000000
H    -1.208000000     5.982000000    -3.665000000
H    -0.768000000     5.306000000    -4.946000000
O     0.918000000    -2.698000000    -2.291000000
H     1.420000000    -2.192000000    -2.930000000
H     0.474000000    -2.039000000    -1.758000000
O    -3.095000000     2.813000000     4.064000000
H    -3.934000000     2.381000000     4.222000000
H    -3.236000000     3.328000000     3.270000000
O    -2.565000000    -5.482000000     6.760000000
H    -1.949000000    -6.046000000     6.293000000
H    -2.515000000    -4.642000000     6.304000000
O    -4.791000000     0.694000000    -3.363000000
H    -5.102000000    -0.198000000    -3.212000000
H    -4.942000000     0.845000000    -4.296000000
O     5.033000000     1.408000000    -3.739000000
H     4.719000000     2.299000000    -3.896000000
H     4.629000000     0.886000000    -4.431000000
O     4.393000000    -2.951000000     0.852000000
H     4.701000000    -2.771000000    -0.036000000
H     3.825000000    -3.716000000     0.758000000
O    -1.866000000    -4.916000000    -0.486000000
H    -2.683000000    -5.411000000    -0.550000000
H    -2.107000000    -4.116000000    -0.020000000
O     1.706000000    -3.232000000     6.252000000
H     1.645000000    -2.277000000     6.228000000
H     1.725000000    -3.448000000     7.184000000
O     5.790000000     2.444000000     2.642000000
H     5.068000000     2.131000000     2.097000000
H     6.232000000     3.098000000     2.101000000
O     2.099000000     6.319000000    -3.623000000
H     1.341000000     5.992000000    -4.109000000
H     1.804000000     6.353000000    -2.713000000
O     3.666000000    -1.340000000     2.687000000
H     2.964000000    -1.852000000     3.089000000
H     3.881000000    -1.817000000     1.885000000
O    -1.850000000    -2.813000000     5.371000000
H    -1.734000000    -2.856000000     4.421000000
H    -1.930000000    -1.878000000     5.560000000
O     2.476000000     2.162000000     1.263000000
H     1.570000000     2.457000000     1.162000000
H     2.426000000     1.209000000     1.197000000
O     4.113000000     0.128000000    -6.040000000
H     3.239000000     0.470000000    -6.226000000
H     4.214000000    -0.611000000    -6.640000000
O     6.700000000     2.026000000    -1.271000000
H     6.472000000     1.186000000    -0.872000000
H     6.078000000     2.125000000    -1.991000000
O     5.880000000    -0.401000000     0.943000000
H     5.511000000    -1.196000000     0.557000000
H     5.366000000    -0.260000000     1.738000000
O     0.545000000     5.049000000    -1.030000000
H    -0.403000000     5.069000000    -1.162000000
H     0.673000000     4.442000000    -0.301000000
O     0.167000000    -0.797000000    -5.925000000
H     0.466000000    -0.328000000    -6.704000000
H     0.958000000    -1.203000000    -5.571000000
O    -5.362000000     1.751000000    -0.745000000
H    -5.104000000     1.218000000    -1.497000000
H    -5.683000000     1.119000000    -0.102000000
O    -0.063000000     3.451000000     1.579000000
H    -0.153000000     3.930000000     2.404000000
H    -0.915000000     3.033000000     1.451000000
O    -3.449000000     3.886000000     1.656000000
H    -3.932000000     3.767000000     0.839000000
H    -2.936000000     4.682000000     1.518000000
O    -1.705000000     0.673000000    -4.562000000
H    -2.092000000     0.196000000    -3.827000000
H    -1.068000000     0.063000000    -4.934000000
O    -0.953000000     3.599000000    -5.739000000
H    -1.120000000     3.460000000    -6.671000000
H    -0.961000000     2.719000000    -5.360000000
O     5.471000000    -0.863000000     4.623000000
H     5.283000000    -1.696000000     5.056000000
H     5.012000000    -0.921000000     3.785000000
O    -4.532000000    -3.433000000     4.922000000
H    -3.684000000    -3.055000000     5.156000000
H    -4.860000000    -2.869000000     4.221000000
O    -2.455000000    -7.622000000     3.599000000
H    -1.971000000    -6.902000000     3.194000000
H    -2.354000000    -8.352000000     2.988000000
O     1.631000000    -2.963000000     3.587000000
H     0.771000000    -2.825000000     3.191000000
H     1.460000000    -2.987000000     4.529000000
O    -5.105000000    -1.108000000     3.110000000
H    -5.449000000    -1.213000000     2.223000000
H    -4.160000000    -1.231000000     3.018000000
O     3.576000000     4.545000000     0.613000000
H     4.515000000     4.383000000     0.521000000
H     3.176000000     3.679000000     0.535000000
O    -1.066000000    -5.368000000     2.646000000
H    -1.048000000    -4.416000000     2.748000000
H    -0.883000000    -5.513000000     1.718000000
O    -2.707000000    -1.403000000    -2.685000000
H    -3.204000000    -2.136000000    -3.047000000
H    -3.076000000    -1.271000000    -1.812000000
O    -2.676000000    -0.250000000     6.285000000
H    -2.827000000    -0.695000000     7.119000000
H    -3.310000000     0.467000000     6.277000000
O    -7.178000000     0.169000000     4.405000000
H    -6.436000000     0.011000000     3.823000000
H    -7.338000000    -0.676000000     4.825000000
O     1.938000000    -5.744000000     2.892000000
H     2.519000000    -5.985000000     3.614000000
H     1.653000000    -4.855000000     3.100000000
O    -3.619000000    -3.746000000     1.649000000
H    -3.916000000    -4.348000000     2.331000000
H    -3.198000000    -3.032000000     2.126000000
O     2.297000000    -4.329000000    -0.406000000
H     1.652000000    -4.951000000    -0.067000000
H     1.807000000    -3.792000000    -1.028000000
O    -0.145000000    -6.174000000     5.646000000
H    -0.328000000    -6.469000000     4.754000000
H     0.457000000    -5.437000000     5.536000000
O     2.919000000     6.938000000    -0.537000000
H     2.990000000     6.119000000    -0.047000000
H     1.977000000     7.072000000    -0.643000000
O     5.458000000    -2.043000000    -1.560000000
H     4.965000000    -2.431000000    -2.284000000
H     6.365000000    -2.301000000    -1.723000000
O    -2.461000000     5.219000000    -2.035000000
H    -3.138000000     5.334000000    -1.368000000
H    -2.700000000     4.407000000    -2.482000000
O     2.376000000    -1.462000000    -4.217000000
H     2.566000000    -2.274000000    -4.687000000
H     3.235000000    -1.131000000    -3.953000000
O    -6.907000000    -0.761000000     0.383000000
H    -7.485000000    -1.162000000     1.031000000
H    -7.499000000    -0.428000000    -0.292000000
O    -5.072000000     4.354000000    -0.789000000
H    -5.334000000     4.474000000    -1.702000000
H    -5.146000000     3.412000000    -0.640000000
O    -3.120000000     2.892000000    -3.344000000
H    -2.415000000     2.410000000    -3.775000000
H    -3.824000000     2.251000000    -3.246000000
