144
-2786.33316
O     3.742000000    -0.114000000    -5.183000000
H     3.788000000    -0.044000000    -6.137000000
H     3.266000000     0.670000000    -4.908000000
O    -3.599000000    -1.229000000     1.873000000
H    -4.346000000    -1.190000000     2.469000000
H    -3.271000000    -0.330000000     1.842000000
O     1.338000000     3.869000000     1.126000000
H     1.184000000     3.528000000     2.007000000
H     0.514000000     4.293000000     0.886000000
O    -1.130000000     5.310000000     1.076000000
H    -1.418000000     6.161000000     0.746000000
H    -1.737000000     4.683000000     0.682000000
O     4.466000000     2.370000000    -1.159000000
H     3.882000000     2.887000000    -1.713000000
H     4.737000000     1.638000000    -1.714000000
O    -0.288000000    -1.524000000    -6.400000000
H     0.052000000    -1.151000000    -7.213000000
H     0.484000000    -1.877000000    -5.957000000
O    -2.417000000    -5.860000000     1.387000000
H    -2.731000000    -5.721000000     2.281000000
H    -2.634000000    -5.049000000     0.928000000
O     2.015000000    -4.291000000    -3.476000000
H     2.915000000    -4.225000000    -3.158000000
H     1.809000000    -5.225000000    -3.422000000
O    -4.846000000    -1.963000000    -3.804000000
H    -5.175000000    -2.399000000    -4.590000000
H    -5.631000000    -1.627000000    -3.371000000
O     0.172000000    -4.762000000    -1.102000000
H     0.613000000    -4.282000000    -1.803000000
H     0.077000000    -4.123000000    -0.397000000
O     1.853000000     3.790000000    -1.910000000
H     1.660000000     3.153000000    -1.222000000
H     1.111000000     4.394000000    -1.891000000
O     1.201000000     4.930000000     6.088000000
H     1.153000000     4.444000000     6.912000000
H     1.713000000     5.710000000     6.300000000
O    -6.457000000    -2.536000000     3.959000000
H    -5.883000000    -1.836000000     4.271000000
H    -6.903000000    -2.160000000     3.200000000
O     4.600000000    -4.148000000    -2.427000000
H     4.916000000    -5.013000000    -2.166000000
H     5.214000000    -3.864000000    -3.104000000
O     4.568000000     4.004000000     0.886000000
H     4.820000000     3.321000000     0.265000000
H     3.620000000     3.909000000     0.975000000
O    -4.138000000    -4.500000000    -2.204000000
H    -3.914000000    -3.605000000    -2.458000000
H    -3.958000000    -4.534000000    -1.264000000
O    -3.279000000     5.706000000     3.294000000
H    -3.016000000     5.275000000     2.481000000
H    -2.999000000     5.106000000     3.985000000
O    -5.355000000     1.771000000     4.073000000
H    -4.531000000     2.052000000     3.675000000
H    -6.020000000     2.322000000     3.661000000
O     5.258000000     0.272000000    -2.618000000
H     5.227000000    -0.575000000    -2.174000000
H     5.151000000     0.061000000    -3.545000000
O    -3.611000000    -4.028000000     3.090000000
H    -3.705000000    -3.088000000     2.932000000
H    -4.413000000    -4.274000000     3.553000000
O     5.054000000     3.657000000    -4.771000000
H     4.947000000     4.475000000    -4.285000000
H     4.227000000     3.193000000    -4.643000000
O     3.114000000     5.348000000     4.069000000
H     2.433000000     4.716000000     3.839000000
H     2.684000000     5.953000000     4.674000000
O     0.880000000    -1.691000000     4.214000000
H     0.577000000    -1.524000000     5.106000000
H     0.546000000    -0.952000000     3.705000000
O    -4.778000000    -0.622000000     5.094000000
H    -5.002000000     0.143000000     4.564000000
H    -3.964000000    -0.378000000     5.535000000
O    -0.923000000     3.137000000     7.397000000
H    -1.193000000     2.292000000     7.756000000
H    -0.014000000     3.239000000     7.680000000
O    -2.758000000    -3.298000000     0.300000000
H    -2.991000000    -2.491000000     0.759000000
H    -1.885000000    -3.129000000    -0.054000000
O    -2.595000000    -0.532000000    -4.921000000
H    -1.861000000    -0.843000000    -5.451000000
H    -3.134000000    -1.311000000    -4.779000000
O    -2.255000000     2.279000000    -1.700000000
H    -2.594000000     1.463000000    -2.067000000
H    -1.967000000     2.783000000    -2.461000000
O    -5.339000000    -4.654000000     0.329000000
H    -4.797000000    -3.955000000     0.695000000
H    -6.137000000    -4.211000000     0.040000000
O     1.032000000     3.367000000     3.869000000
H     0.287000000     2.769000000     3.925000000
H     1.120000000     3.724000000     4.753000000
O     3.433000000     1.564000000     3.438000000
H     2.860000000     1.442000000     2.680000000
H     2.868000000     1.957000000     4.103000000
O    -3.292000000     3.579000000     0.473000000
H    -2.937000000     3.157000000    -0.310000000
H    -3.355000000     2.874000000     1.117000000
O     2.199000000    -2.670000000    -5.642000000
H     2.168000000    -3.307000000    -4.929000000
H     2.744000000    -1.959000000    -5.305000000
O    -0.077000000     7.420000000     3.492000000
H    -0.144000000     6.514000000     3.192000000
H     0.598000000     7.808000000     2.936000000
O     0.067000000    -2.873000000     0.696000000
H     0.964000000    -2.907000000     1.030000000
H    -0.117000000    -1.939000000     0.599000000
O    -2.127000000     0.191000000     5.683000000
H    -1.859000000     0.720000000     4.932000000
H    -1.308000000    -0.024000000     6.130000000
O    -0.327000000    -4.120000000     3.424000000
H     0.398000000    -3.544000000     3.666000000
H    -0.730000000    -3.692000000     2.668000000
O     5.061000000    -2.289000000    -0.492000000
H     5.244000000    -2.935000000     0.191000000
H     4.407000000    -2.710000000    -1.050000000
O    -2.364000000     3.563000000     4.775000000
H    -1.941000000     3.246000000     5.573000000
H    -2.093000000     2.943000000     4.098000000
O    -6.584000000     2.037000000    -1.423000000
H    -5.921000000     1.855000000    -2.089000000
H    -6.680000000     2.989000000    -1.435000000
O    -4.395000000     6.227000000    -0.111000000
H    -3.528000000     6.629000000    -0.167000000
H    -4.220000000     5.290000000    -0.028000000
O    -4.391000000     1.358000000    -3.663000000
H    -5.159000000     1.337000000    -4.235000000
H    -3.761000000     0.775000000    -4.087000000
O     2.362000000    -3.016000000     2.135000000
H     2.174000000    -2.317000000     2.761000000
H     3.316000000    -3.019000000     2.059000000
O     0.259000000    -0.536000000     6.886000000
H    -0.117000000    -0.111000000     7.657000000
H     0.774000000    -1.261000000     7.239000000
O     6.339000000    -0.106000000     0.734000000
H     6.036000000     0.629000000     0.201000000
H     6.211000000    -0.874000000     0.176000000
O    -6.720000000    -0.799000000    -1.941000000
H    -7.472000000    -0.392000000    -2.372000000
H    -6.437000000    -0.153000000    -1.294000000
O     2.681000000     2.396000000    -4.402000000
H     2.432000000     2.712000000    -3.533000000
H     1.915000000     2.571000000    -4.949000000
O    -0.486000000     2.097000000    -5.312000000
H    -1.035000000     1.315000000    -5.360000000
H    -0.895000000     2.635000000    -4.634000000
