144
-2795.30471
O     1.716000000     4.927000000    -3.461000000
H     2.643000000     4.694000000    -3.409000000
H     1.616000000     5.653000000    -2.846000000
O    -4.679000000     0.570000000    -2.588000000
H    -4.694000000     0.699000000    -3.537000000
H    -4.754000000     1.452000000    -2.225000000
O     4.352000000     4.055000000    -3.582000000
H     4.609000000     3.445000000    -4.274000000
H     4.600000000     3.614000000    -2.770000000
O     1.885000000     1.043000000     2.933000000
H     1.154000000     0.974000000     2.319000000
H     1.867000000     0.219000000     3.421000000
O    -0.578000000    -7.720000000     5.261000000
H    -1.286000000    -8.363000000     5.304000000
H    -0.592000000    -7.410000000     4.355000000
O    -1.046000000    -3.965000000    -0.805000000
H    -0.491000000    -4.613000000    -1.240000000
H    -1.713000000    -4.484000000    -0.356000000
O    -6.020000000    -2.340000000     6.135000000
H    -6.604000000    -3.079000000     6.309000000
H    -5.579000000    -2.571000000     5.317000000
O    -5.500000000    -1.396000000     1.323000000
H    -4.855000000    -1.894000000     0.821000000
H    -5.212000000    -1.481000000     2.232000000
O    -3.769000000    -5.796000000    -0.081000000
H    -3.480000000    -5.805000000     0.832000000
H    -3.822000000    -6.720000000    -0.325000000
O     1.439000000    -1.496000000     3.976000000
H     1.343000000    -2.242000000     3.383000000
H     0.591000000    -1.430000000     4.416000000
O    -0.202000000    -6.992000000     2.611000000
H    -0.522000000    -7.307000000     1.765000000
H     0.749000000    -7.086000000     2.556000000
O    -5.238000000    -1.890000000    -2.188000000
H    -4.622000000    -2.052000000    -1.474000000
H    -5.185000000    -0.946000000    -2.340000000
O     0.970000000    -3.949000000    -2.799000000
H     1.844000000    -3.831000000    -3.173000000
H     0.492000000    -3.160000000    -3.055000000
O    -3.510000000     3.800000000    -3.725000000
H    -3.305000000     4.223000000    -4.559000000
H    -2.795000000     4.058000000    -3.144000000
O    -2.281000000     3.767000000     1.071000000
H    -3.043000000     3.211000000     1.227000000
H    -2.650000000     4.613000000     0.817000000
O     5.489000000    -2.194000000    -1.539000000
H     5.556000000    -1.387000000    -1.029000000
H     4.937000000    -1.960000000    -2.286000000
O     4.859000000    -0.241000000     0.349000000
H     5.584000000    -0.489000000     0.923000000
H     4.720000000     0.689000000     0.529000000
O     2.030000000     6.276000000    -1.240000000
H     2.232000000     7.158000000    -1.552000000
H     1.365000000     6.407000000    -0.564000000
O    -2.384000000     1.114000000    -4.753000000
H    -2.340000000     1.913000000    -4.227000000
H    -3.241000000     1.153000000    -5.176000000
O     0.559000000     2.085000000    -6.336000000
H     0.594000000     1.364000000    -5.708000000
H     0.242000000     2.831000000    -5.827000000
O     3.849000000     2.095000000     1.446000000
H     3.158000000     1.718000000     1.991000000
H     4.255000000     2.761000000     2.000000000
O     0.963000000     5.568000000    -6.038000000
H     1.277000000     5.334000000    -5.164000000
H     1.549000000     5.102000000    -6.635000000
O    -2.761000000    -5.197000000     2.450000000
H    -1.924000000    -5.655000000     2.530000000
H    -2.534000000    -4.269000000     2.522000000
O    -2.590000000    -0.696000000     6.062000000
H    -3.043000000     0.148000000     6.058000000
H    -1.665000000    -0.470000000     6.151000000
O    -1.418000000    -0.984000000    -5.850000000
H    -2.043000000    -0.375000000    -5.455000000
H    -0.560000000    -0.647000000    -5.593000000
O    -5.867000000    -4.459000000     3.690000000
H    -6.318000000    -5.270000000     3.456000000
H    -5.135000000    -4.406000000     3.076000000
O     2.303000000    -4.113000000     6.755000000
H     1.477000000    -4.459000000     7.093000000
H     2.159000000    -4.031000000     5.812000000
O     0.760000000    -0.017000000    -4.398000000
H     1.668000000    -0.183000000    -4.147000000
H     0.241000000    -0.460000000    -3.727000000
O    -4.188000000    -1.649000000     3.960000000
H    -3.404000000    -1.751000000     3.421000000
H    -3.872000000    -1.250000000     4.770000000
O    -2.792000000    -3.859000000     5.714000000
H    -3.023000000    -2.953000000     5.512000000
H    -1.967000000    -4.006000000     5.251000000
O     3.421000000     5.165000000     0.840000000
H     3.068000000     5.347000000    -0.031000000
H     3.809000000     5.995000000     1.120000000
O    -3.692000000    -2.849000000     0.069000000
H    -2.907000000    -2.933000000     0.611000000
H    -3.991000000    -3.749000000    -0.059000000
O    -1.524000000     5.660000000    -1.900000000
H    -0.773000000     5.140000000    -2.187000000
H    -1.175000000     6.220000000    -1.206000000
O    -6.247000000     1.631000000     0.317000000
H    -5.634000000     2.079000000     0.899000000
H    -6.300000000     0.740000000     0.663000000
O    -1.149000000    -1.622000000    -2.569000000
H    -1.438000000    -0.875000000    -2.045000000
H    -1.233000000    -2.373000000    -1.983000000
O     6.157000000     0.386000000    -3.183000000
H     6.252000000     1.215000000    -3.652000000
H     6.328000000     0.608000000    -2.268000000
O    -0.988000000    -7.621000000    -0.070000000
H    -0.958000000    -8.510000000    -0.424000000
H    -0.470000000    -7.101000000    -0.685000000
O     4.065000000    -1.195000000     4.611000000
H     3.136000000    -1.422000000     4.648000000
H     4.379000000    -1.599000000     3.802000000
O     5.356000000     3.443000000    -0.891000000
H     6.180000000     3.034000000    -0.626000000
H     4.737000000     3.205000000    -0.201000000
O     2.895000000    -6.464000000     1.548000000
H     3.188000000    -6.252000000     2.434000000
H     2.638000000    -5.622000000     1.172000000
O     0.092000000    -4.443000000     4.572000000
H    -0.155000000    -5.355000000     4.418000000
H     0.018000000    -4.027000000     3.713000000
O     3.510000000    -6.154000000     4.466000000
H     2.555000000    -6.173000000     4.513000000
H     3.797000000    -6.694000000     5.203000000
O    -4.315000000     5.789000000    -1.073000000
H    -3.406000000     5.902000000    -1.348000000
H    -4.322000000     6.052000000    -0.152000000
O    -0.020000000     6.344000000     0.791000000
H    -0.060000000     5.539000000     1.308000000
H     0.306000000     7.005000000     1.402000000
O     4.096000000    -0.957000000    -4.356000000
H     4.049000000    -0.883000000    -5.309000000
H     4.831000000    -0.397000000    -4.108000000
O     0.363000000     3.787000000     2.033000000
H    -0.493000000     3.707000000     1.613000000
H     0.979000000     3.435000000     1.390000000
O     1.878000000    -4.073000000     0.502000000
H     1.487000000    -3.944000000    -0.362000000
H     1.180000000    -3.848000000     1.117000000
O     2.554000000     5.045000000     3.456000000
H     1.771000000     4.822000000     2.952000000
H     3.201000000     5.293000000     2.795000000
