144
-2821.07993
O     2.442000000     4.491000000    -1.689000000
H     1.718000000     5.068000000    -1.444000000
H     3.193000000     4.828000000    -1.201000000
O    -5.543000000    -0.187000000    -0.374000000
H    -6.362000000     0.272000000    -0.184000000
H    -5.180000000    -0.395000000     0.487000000
O    -1.133000000    -3.264000000     7.160000000
H    -1.464000000    -2.843000000     6.366000000
H    -0.613000000    -4.002000000     6.841000000
O    -2.504000000     0.324000000     3.921000000
H    -2.233000000     0.781000000     4.718000000
H    -1.890000000     0.627000000     3.251000000
O     0.134000000    -7.700000000     1.801000000
H     0.208000000    -8.621000000     1.549000000
H     0.074000000    -7.230000000     0.969000000
O     4.202000000     2.018000000    -0.137000000
H     3.650000000     2.619000000     0.363000000
H     5.089000000     2.187000000     0.180000000
O    -0.340000000     1.628000000     2.363000000
H    -0.260000000     0.957000000     1.686000000
H     0.527000000     2.033000000     2.403000000
O    -1.051000000    -1.015000000    -2.944000000
H    -1.373000000    -1.480000000    -2.172000000
H    -1.662000000    -0.287000000    -3.057000000
O    -3.636000000    -4.867000000     5.520000000
H    -4.283000000    -4.499000000     6.121000000
H    -2.926000000    -4.224000000     5.509000000
O    -2.108000000    -6.151000000    -1.367000000
H    -1.279000000    -5.852000000    -0.994000000
H    -1.854000000    -6.788000000    -2.035000000
O    -4.916000000     3.380000000    -1.060000000
H    -4.592000000     2.514000000    -0.811000000
H    -4.126000000     3.896000000    -1.218000000
O    -0.592000000     3.770000000    -7.669000000
H     0.212000000     3.624000000    -8.167000000
H    -0.578000000     3.096000000    -6.989000000
O     4.131000000    -0.864000000    -5.039000000
H     3.187000000    -0.785000000    -4.897000000
H     4.378000000    -0.046000000    -5.470000000
O     3.937000000    -0.396000000     4.977000000
H     4.154000000    -0.492000000     5.904000000
H     3.258000000    -1.053000000     4.821000000
O     2.441000000    -2.400000000     4.285000000
H     1.957000000    -2.468000000     3.462000000
H     2.505000000    -3.301000000     4.601000000
O    -5.341000000     1.793000000     3.343000000
H    -6.167000000     1.524000000     3.745000000
H    -5.119000000     1.076000000     2.749000000
O    -4.196000000    -1.919000000    -1.937000000
H    -3.765000000    -2.603000000    -1.424000000
H    -4.829000000    -1.530000000    -1.333000000
O    -3.200000000     5.656000000    -1.886000000
H    -2.341000000     6.047000000    -2.046000000
H    -3.549000000     6.142000000    -1.139000000
O     5.831000000     0.843000000     3.322000000
H     5.183000000     0.466000000     3.918000000
H     6.376000000     0.101000000     3.061000000
O     4.539000000    -0.461000000    -1.482000000
H     4.874000000    -0.057000000    -2.282000000
H     4.431000000     0.269000000    -0.872000000
O     2.971000000     3.494000000     1.559000000
H     2.148000000     3.982000000     1.525000000
H     2.817000000     2.812000000     2.212000000
O    -2.340000000     1.545000000    -5.883000000
H    -1.439000000     1.223000000    -5.912000000
H    -2.656000000     1.296000000    -5.015000000
O     2.751000000     2.291000000    -3.341000000
H     3.158000000     1.762000000    -2.655000000
H     2.484000000     3.096000000    -2.897000000
O     0.781000000     6.716000000    -1.214000000
H     0.079000000     6.935000000    -1.827000000
H     1.043000000     7.557000000    -0.840000000
O    -0.226000000    -5.095000000     0.207000000
H     0.558000000    -4.564000000     0.067000000
H    -0.805000000    -4.536000000     0.725000000
O     4.908000000    -3.610000000     3.910000000
H     4.485000000    -2.755000000     3.990000000
H     5.373000000    -3.569000000     3.074000000
O    -3.022000000    -4.296000000     2.320000000
H    -2.234000000    -3.774000000     2.165000000
H    -3.141000000    -4.274000000     3.270000000
O     2.438000000    -4.693000000     6.129000000
H     3.006000000    -5.041000000     6.816000000
H     1.591000000    -5.112000000     6.283000000
O     1.946000000     5.341000000    -4.478000000
H     2.504000000     4.656000000    -4.846000000
H     2.038000000     5.241000000    -3.530000000
O    -0.363000000    -5.457000000     5.986000000
H    -0.018000000    -5.227000000     5.124000000
H    -0.808000000    -6.294000000     5.850000000
O     0.488000000     1.348000000    -6.415000000
H     0.566000000     0.729000000    -7.140000000
H     1.236000000     1.152000000    -5.851000000
O    -1.658000000    -2.717000000     4.556000000
H    -1.169000000    -2.923000000     3.759000000
H    -1.897000000    -1.796000000     4.458000000
O     0.516000000    -5.298000000     3.312000000
H     0.477000000    -4.494000000     2.793000000
H     0.371000000    -6.000000000     2.677000000
O    -4.958000000     5.517000000    -3.956000000
H    -4.227000000     5.577000000    -3.341000000
H    -4.863000000     6.287000000    -4.517000000
O    -3.424000000    -4.035000000    -0.320000000
H    -3.002000000    -4.802000000    -0.709000000
H    -3.636000000    -4.305000000     0.573000000
O     1.262000000    -1.210000000     6.420000000
H     1.470000000    -1.727000000     7.198000000
H     1.728000000    -1.649000000     5.709000000
O    -4.589000000    -0.565000000     2.031000000
H    -3.896000000    -0.047000000     2.441000000
H    -5.101000000    -0.903000000     2.766000000
O     0.558000000    -3.449000000    -2.508000000
H     0.141000000    -2.593000000    -2.605000000
H     1.435000000    -3.253000000    -2.178000000
O    -3.049000000    -6.901000000     1.901000000
H    -3.996000000    -6.771000000     1.843000000
H    -2.701000000    -6.035000000     2.114000000
O     6.228000000    -2.393000000    -0.017000000
H     5.828000000    -1.691000000    -0.530000000
H     5.489000000    -2.921000000     0.285000000
O     3.822000000    -3.823000000     0.868000000
H     3.726000000    -4.770000000     0.967000000
H     3.068000000    -3.456000000     1.329000000
O     2.974000000     2.877000000    -5.940000000
H     3.525000000     2.213000000    -6.354000000
H     3.019000000     2.678000000    -5.005000000
O    -2.299000000     3.290000000     1.249000000
H    -2.577000000     3.360000000     2.163000000
H    -1.521000000     2.733000000     1.278000000
O     0.671000000     5.032000000     1.091000000
H    -0.226000000     4.857000000     0.808000000
H     1.041000000     5.572000000     0.392000000
O     1.579000000    -1.572000000    -4.634000000
H     0.817000000    -1.065000000    -4.355000000
H     1.211000000    -2.306000000    -5.126000000
O     2.374000000     1.769000000     3.712000000
H     3.042000000     1.102000000     3.872000000
H     1.976000000     1.920000000     4.569000000
O    -3.318000000     0.455000000    -3.360000000
H    -3.530000000    -0.417000000    -3.027000000
H    -4.114000000     0.967000000    -3.216000000
O     2.976000000    -2.705000000    -1.819000000
H     3.487000000    -1.900000000    -1.900000000
H     3.456000000    -3.230000000    -1.179000000
