144
-2794.27375
O     0.585000000     5.991000000    -3.181000000
H     0.106000000     6.680000000    -3.642000000
H     1.238000000     6.459000000    -2.661000000
O     4.847000000     2.550000000    -0.698000000
H     4.267000000     2.935000000    -1.356000000
H     5.029000000     3.266000000    -0.090000000
O    -4.792000000    -0.506000000     1.879000000
H    -4.079000000    -0.709000000     2.485000000
H    -4.599000000     0.379000000     1.570000000
O     1.522000000     1.751000000     2.421000000
H     2.184000000     1.406000000     3.020000000
H     1.416000000     1.065000000     1.761000000
O    -3.324000000    -5.011000000    -1.676000000
H    -2.901000000    -4.987000000    -0.818000000
H    -2.608000000    -4.886000000    -2.299000000
O    -5.917000000    -2.585000000     3.667000000
H    -5.807000000    -2.515000000     2.719000000
H    -5.103000000    -2.984000000     3.974000000
O     1.340000000    -6.518000000     1.068000000
H     0.676000000    -6.647000000     1.745000000
H     1.846000000    -5.763000000     1.370000000
O     3.712000000    -7.223000000    -0.225000000
H     3.649000000    -7.758000000     0.566000000
H     3.148000000    -6.470000000    -0.050000000
O    -3.562000000     0.773000000    -5.865000000
H    -2.740000000     1.114000000    -5.513000000
H    -3.468000000     0.856000000    -6.814000000
O    -2.240000000     5.648000000    -2.431000000
H    -2.078000000     5.796000000    -1.499000000
H    -1.371000000     5.669000000    -2.831000000
O    -0.318000000     0.681000000     4.497000000
H     0.143000000     0.076000000     5.078000000
H     0.355000000     0.992000000     3.892000000
O     4.710000000    -4.618000000     1.844000000
H     5.217000000    -4.583000000     1.033000000
H     4.778000000    -3.735000000     2.207000000
O    -4.703000000     5.740000000    -0.597000000
H    -5.302000000     5.301000000    -1.201000000
H    -3.963000000     5.139000000    -0.515000000
O    -4.525000000    -0.215000000     5.974000000
H    -4.023000000    -0.641000000     5.280000000
H    -5.297000000     0.137000000     5.530000000
O    -1.985000000     4.584000000    -6.889000000
H    -1.687000000     3.716000000    -6.619000000
H    -2.510000000     4.897000000    -6.153000000
O     0.696000000    -4.255000000    -1.786000000
H     0.056000000    -4.227000000    -1.074000000
H     1.503000000    -3.920000000    -1.396000000
O     3.190000000     0.819000000     4.544000000
H     3.318000000    -0.122000000     4.665000000
H     2.654000000     1.086000000     5.290000000
O     5.570000000     0.375000000     1.191000000
H     4.937000000     0.904000000     0.705000000
H     5.992000000     0.994000000     1.786000000
O    -2.165000000     6.835000000     0.283000000
H    -2.394000000     6.785000000     1.211000000
H    -1.413000000     7.427000000     0.254000000
O     1.242000000    -1.836000000     5.546000000
H     1.542000000    -2.392000000     4.826000000
H     0.810000000    -2.440000000     6.150000000
O     3.512000000    -4.615000000    -3.473000000
H     4.346000000    -5.081000000    -3.411000000
H     3.330000000    -4.329000000    -2.578000000
O     0.219000000     5.074000000     3.472000000
H    -0.261000000     5.008000000     4.297000000
H     0.392000000     4.166000000     3.222000000
O     6.285000000    -0.910000000    -1.352000000
H     6.135000000    -0.705000000    -0.429000000
H     5.805000000    -0.232000000    -1.829000000
O    -6.963000000     1.535000000    -0.866000000
H    -6.235000000     1.604000000    -0.248000000
H    -6.672000000     0.886000000    -1.507000000
O    -0.861000000    -7.167000000     2.649000000
H    -1.041000000    -8.057000000     2.954000000
H    -1.722000000    -6.805000000     2.442000000
O    -6.399000000    -2.108000000     0.405000000
H    -6.082000000    -1.408000000     0.976000000
H    -6.054000000    -1.885000000    -0.460000000
O     6.050000000    -3.733000000    -0.530000000
H     6.812000000    -3.642000000     0.042000000
H     5.926000000    -2.860000000    -0.904000000
O    -0.249000000    -3.976000000     6.760000000
H     0.292000000    -4.675000000     6.393000000
H    -1.148000000    -4.250000000     6.580000000
O    -1.507000000    -4.705000000     0.496000000
H    -0.877000000    -4.165000000     0.974000000
H    -1.123000000    -5.582000000     0.502000000
O     6.293000000    -1.424000000     4.241000000
H     5.616000000    -1.579000000     3.583000000
H     5.808000000    -1.269000000     5.052000000
O    -3.785000000    -3.889000000     4.772000000
H    -3.742000000    -4.290000000     5.640000000
H    -3.030000000    -4.248000000     4.305000000
O     0.602000000     3.547000000    -3.969000000
H     0.456000000     4.469000000    -3.757000000
H     1.544000000     3.483000000    -4.124000000
O     2.065000000    -3.890000000     3.950000000
H     2.040000000    -3.547000000     3.057000000
H     2.961000000    -4.209000000     4.060000000
O    -2.703000000    -0.986000000     4.202000000
H    -2.006000000    -0.334000000     4.131000000
H    -2.261000000    -1.779000000     4.504000000
O    -1.184000000    -4.479000000     3.990000000
H    -0.686000000    -3.928000000     3.386000000
H    -0.886000000    -5.369000000     3.804000000
O    -1.154000000     1.654000000    -5.099000000
H    -0.489000000     1.029000000    -5.389000000
H    -0.678000000     2.266000000    -4.538000000
O     4.252000000    -5.882000000     4.399000000
H     4.612000000    -5.689000000     3.534000000
H     4.235000000    -6.838000000     4.444000000
O    -3.263000000     4.091000000     1.781000000
H    -2.418000000     4.533000000     1.699000000
H    -3.782000000     4.668000000     2.340000000
O     4.873000000     1.214000000    -3.413000000
H     5.161000000     2.057000000    -3.063000000
H     3.946000000     1.342000000    -3.614000000
O    -4.864000000    -4.368000000     1.380000000
H    -5.665000000    -4.188000000     0.887000000
H    -4.330000000    -3.583000000     1.264000000
O     3.122000000    -3.976000000    -0.667000000
H     4.075000000    -3.974000000    -0.579000000
H     2.803000000    -3.635000000     0.168000000
O     1.179000000    -5.954000000     5.805000000
H     1.641000000    -5.817000000     4.978000000
H     0.714000000    -6.782000000     5.685000000
O     3.548000000     4.117000000    -2.968000000
H     3.759000000     5.037000000    -3.127000000
H     2.645000000     4.129000000    -2.652000000
O     4.627000000    -2.005000000     2.241000000
H     4.891000000    -1.151000000     1.898000000
H     3.673000000    -2.011000000     2.160000000
O     1.922000000     0.863000000    -4.010000000
H     1.049000000     0.889000000    -3.619000000
H     1.970000000     0.006000000    -4.434000000
O    -4.846000000     2.220000000     0.917000000
H    -4.129000000     2.834000000     1.075000000
H    -5.401000000     2.295000000     1.694000000
O     1.898000000     6.826000000    -0.680000000
H     2.321000000     6.567000000     0.139000000
H     1.156000000     7.365000000    -0.406000000
O    -3.356000000     5.330000000    -4.930000000
H    -3.102000000     5.203000000    -4.016000000
H    -3.778000000     6.189000000    -4.945000000
