144
-2815.72086
O    -6.445000000    -3.341000000     2.439000000
H    -6.814000000    -4.156000000     2.779000000
H    -7.186000000    -2.735000000     2.411000000
O    -5.885000000     3.750000000     2.322000000
H    -5.801000000     4.388000000     1.614000000
H    -5.385000000     4.128000000     3.046000000
O     3.308000000     5.492000000     0.947000000
H     2.559000000     4.897000000     0.981000000
H     3.790000000     5.224000000     0.164000000
O    -4.051000000     1.149000000    -2.345000000
H    -3.617000000     1.954000000    -2.631000000
H    -4.816000000     1.451000000    -1.856000000
O     5.634000000    -0.470000000    -5.923000000
H     5.281000000    -0.790000000    -6.753000000
H     4.862000000    -0.230000000    -5.411000000
O     1.168000000     3.835000000     0.717000000
H     0.590000000     4.241000000     0.071000000
H     0.706000000     3.042000000     0.987000000
O    -5.208000000     3.251000000     5.950000000
H    -4.802000000     2.560000000     5.427000000
H    -5.915000000     2.810000000     6.422000000
O    -1.247000000    -6.327000000    -1.083000000
H    -0.699000000    -5.791000000    -0.510000000
H    -0.971000000    -6.090000000    -1.969000000
O    -3.749000000    -3.327000000     5.930000000
H    -3.658000000    -3.973000000     5.230000000
H    -4.265000000    -2.621000000     5.540000000
O     3.410000000    -4.435000000    -0.121000000
H     4.063000000    -3.759000000    -0.305000000
H     3.841000000    -5.256000000    -0.358000000
O    -2.265000000    -0.780000000    -2.009000000
H    -2.994000000    -0.186000000    -2.188000000
H    -1.796000000    -0.371000000    -1.282000000
O     8.226000000    -0.579000000    -0.189000000
H     7.483000000     0.020000000    -0.258000000
H     8.972000000    -0.074000000    -0.513000000
O    -2.223000000    -0.937000000     6.215000000
H    -1.921000000    -1.117000000     5.324000000
H    -2.781000000    -1.684000000     6.434000000
O     5.613000000     2.671000000    -2.327000000
H     6.468000000     2.982000000    -2.623000000
H     5.015000000     2.900000000    -3.039000000
O     5.025000000    -2.730000000    -0.871000000
H     5.884000000    -2.876000000    -0.476000000
H     5.088000000    -1.861000000    -1.268000000
O    -7.292000000     1.395000000     2.668000000
H    -6.976000000     0.945000000     3.451000000
H    -6.763000000     2.192000000     2.620000000
O     0.670000000    -4.993000000     0.487000000
H     0.693000000    -4.239000000     1.076000000
H     1.539000000    -5.011000000     0.086000000
O     0.934000000    -3.487000000     2.609000000
H     1.266000000    -2.592000000     2.542000000
H     0.860000000    -3.646000000     3.550000000
O    -3.119000000     6.080000000     3.118000000
H    -2.999000000     5.273000000     2.618000000
H    -2.244000000     6.296000000     3.440000000
O    -3.373000000     1.693000000     4.233000000
H    -3.518000000     0.841000000     4.644000000
H    -3.305000000     1.499000000     3.298000000
O    -5.626000000     1.932000000    -0.009000000
H    -6.331000000     1.920000000     0.638000000
H    -4.897000000     1.486000000     0.423000000
O    -0.816000000     1.169000000    -3.681000000
H    -0.161000000     0.477000000    -3.776000000
H    -0.890000000     1.300000000    -2.735000000
O    -0.679000000    -2.858000000    -2.895000000
H    -0.094000000    -3.077000000    -2.170000000
H    -1.394000000    -2.370000000    -2.487000000
O    -3.361000000    -5.538000000     4.310000000
H    -3.032000000    -5.071000000     3.541000000
H    -3.071000000    -6.441000000     4.184000000
O    -0.431000000     2.533000000     3.454000000
H     0.098000000     2.101000000     4.125000000
H    -1.310000000     2.172000000     3.572000000
O     0.467000000    -0.922000000    -4.796000000
H    -0.122000000    -1.080000000    -5.534000000
H     0.200000000    -1.561000000    -4.135000000
O     3.268000000     2.033000000    -4.610000000
H     3.728000000     2.320000000    -5.399000000
H     2.720000000     1.306000000    -4.904000000
O    -6.793000000     0.250000000     5.472000000
H    -6.269000000    -0.519000000     5.247000000
H    -6.563000000     0.437000000     6.382000000
O     5.545000000     3.671000000     0.259000000
H     5.199000000     2.897000000     0.704000000
H     5.987000000     3.324000000    -0.515000000
O    -5.119000000    -1.686000000     4.176000000
H    -4.818000000    -1.361000000     3.328000000
H    -5.449000000    -2.565000000     3.992000000
O     7.520000000    -2.043000000    -2.286000000
H     7.556000000    -2.560000000    -1.481000000
H     7.218000000    -1.180000000    -2.002000000
O    -2.760000000     4.095000000     1.358000000
H    -2.569000000     3.160000000     1.290000000
H    -2.990000000     4.358000000     0.467000000
O    -2.415000000    -4.462000000     1.987000000
H    -3.050000000    -3.827000000     1.656000000
H    -1.705000000    -3.927000000     2.342000000
O     1.814000000     4.127000000    -3.406000000
H     2.181000000     3.335000000    -3.800000000
H     1.264000000     4.503000000    -4.094000000
O    -4.127000000    -2.813000000     1.073000000
H    -4.954000000    -2.689000000     1.539000000
H    -3.642000000    -2.002000000     1.226000000
O     2.116000000    -3.702000000    -2.600000000
H     2.549000000    -3.743000000    -1.748000000
H     2.832000000    -3.622000000    -3.229000000
O    -4.964000000    -5.120000000    -0.739000000
H    -5.332000000    -5.383000000     0.105000000
H    -4.212000000    -4.574000000    -0.513000000
O     5.825000000     0.206000000    -1.505000000
H     5.472000000     0.307000000    -0.621000000
H     5.815000000     1.091000000    -1.870000000
O     4.804000000    -4.358000000     2.458000000
H     4.103000000    -4.877000000     2.062000000
H     4.682000000    -3.479000000     2.101000000
O     1.459000000    -0.777000000     3.207000000
H     2.114000000    -1.342000000     3.617000000
H     1.967000000    -0.057000000     2.831000000
O     4.990000000     0.592000000     1.056000000
H     5.542000000     0.461000000     1.827000000
H     4.167000000     0.932000000     1.407000000
O     2.778000000    -0.511000000    -6.104000000
H     2.128000000    -0.650000000    -5.415000000
H     2.540000000    -1.140000000    -6.786000000
O    -3.466000000     4.421000000    -1.309000000
H    -3.600000000     4.104000000    -2.202000000
H    -4.065000000     5.164000000    -1.227000000
O    -0.415000000     3.386000000    -5.289000000
H    -0.614000000     2.644000000    -4.718000000
H    -0.656000000     4.156000000    -4.774000000
O     3.918000000     5.146000000    -1.878000000
H     4.408000000     4.523000000    -1.341000000
H     3.236000000     4.619000000    -2.294000000
O     2.904000000     2.251000000     2.368000000
H     3.238000000     2.450000000     3.243000000
H     2.585000000     3.090000000     2.037000000
O    -1.139000000    -1.591000000     3.741000000
H    -0.236000000    -1.347000000     3.536000000
H    -1.636000000    -1.344000000     2.961000000
O    -0.340000000     4.962000000    -1.106000000
H     0.177000000     4.988000000    -1.910000000
H    -1.204000000     4.658000000    -1.386000000
