144
-2811.99155
O    -2.644000000    -5.892000000    -2.767000000
H    -2.577000000    -6.635000000    -3.367000000
H    -1.915000000    -5.321000000    -3.012000000
O    -3.317000000     7.491000000    -1.179000000
H    -4.193000000     7.561000000    -0.799000000
H    -2.733000000     7.426000000    -0.423000000
O    -3.439000000    -2.383000000     2.613000000
H    -3.706000000    -2.592000000     1.717000000
H    -3.378000000    -3.233000000     3.049000000
O    -6.399000000    -1.206000000     0.015000000
H    -6.892000000    -0.727000000     0.681000000
H    -6.993000000    -1.900000000    -0.270000000
O     5.632000000     4.613000000     0.656000000
H     5.259000000     3.813000000     1.027000000
H     5.825000000     4.387000000    -0.254000000
O    -0.764000000    -4.781000000     0.956000000
H    -0.654000000    -5.608000000     0.487000000
H    -1.472000000    -4.334000000     0.492000000
O     0.727000000    -5.060000000    -2.647000000
H     0.796000000    -4.129000000    -2.856000000
H     1.537000000    -5.442000000    -2.986000000
O    -3.854000000     0.703000000    -2.079000000
H    -3.560000000     1.318000000    -1.407000000
H    -4.532000000     1.180000000    -2.558000000
O    -4.357000000     4.271000000    -3.796000000
H    -3.600000000     4.134000000    -3.227000000
H    -4.899000000     3.492000000    -3.667000000
O    -1.538000000    -2.519000000    -4.816000000
H    -1.515000000    -1.911000000    -4.077000000
H    -0.720000000    -2.356000000    -5.286000000
O     7.210000000    -3.139000000    -0.770000000
H     7.326000000    -3.962000000    -1.244000000
H     6.764000000    -3.390000000     0.039000000
O    -2.584000000     3.893000000     4.100000000
H    -1.744000000     4.169000000     3.734000000
H    -2.597000000     4.267000000     4.981000000
O     7.279000000    -1.812000000     2.084000000
H     7.459000000    -0.957000000     1.694000000
H     6.474000000    -2.105000000     1.658000000
O    -1.379000000    -1.747000000     4.633000000
H    -2.123000000    -1.520000000     4.075000000
H    -0.748000000    -1.041000000     4.490000000
O    -1.001000000     8.317000000    -2.011000000
H    -1.840000000     7.981000000    -1.696000000
H    -1.238000000     9.014000000    -2.623000000
O    -5.321000000     3.038000000     5.273000000
H    -5.188000000     3.449000000     4.418000000
H    -4.547000000     3.284000000     5.780000000
O     5.457000000    -3.771000000     1.776000000
H     5.578000000    -4.698000000     1.982000000
H     4.508000000    -3.646000000     1.779000000
O     6.071000000    -1.740000000    -2.868000000
H     5.998000000    -2.051000000    -1.966000000
H     6.899000000    -2.106000000    -3.181000000
O    -1.618000000     4.138000000    -3.135000000
H    -1.581000000     3.946000000    -2.198000000
H    -1.268000000     3.353000000    -3.554000000
O    -2.689000000     6.999000000     1.387000000
H    -2.739000000     6.888000000     2.336000000
H    -3.058000000     6.191000000     1.032000000
O    -5.148000000     5.178000000     3.221000000
H    -5.143000000     4.825000000     2.331000000
H    -4.296000000     4.932000000     3.580000000
O    -4.848000000    -0.611000000     4.044000000
H    -4.605000000     0.233000000     3.662000000
H    -4.643000000    -1.250000000     3.361000000
O     2.072000000     1.368000000     4.890000000
H     2.917000000     0.931000000     4.995000000
H     1.706000000     0.993000000     4.090000000
O     1.337000000     3.385000000     1.794000000
H     1.793000000     3.894000000     2.465000000
H     0.905000000     4.042000000     1.248000000
O    -5.998000000     2.205000000    -3.258000000
H    -6.173000000     1.488000000    -3.868000000
H    -6.803000000     2.287000000    -2.746000000
O     5.361000000     2.049000000    -1.152000000
H     4.860000000     1.930000000    -1.959000000
H     4.698000000     2.186000000    -0.476000000
O     2.868000000    -4.253000000     2.633000000
H     2.146000000    -3.763000000     3.026000000
H     2.570000000    -5.163000000     2.640000000
O    -1.514000000    -1.181000000    -2.684000000
H    -2.022000000    -0.417000000    -2.411000000
H    -1.304000000    -1.634000000    -1.867000000
O     5.396000000     0.649000000    -3.965000000
H     5.729000000    -0.082000000    -3.445000000
H     6.180000000     1.113000000    -4.257000000
O     0.521000000     5.225000000    -0.286000000
H    -0.171000000     4.564000000    -0.297000000
H     0.591000000     5.515000000    -1.195000000
O     3.499000000    -1.255000000    -4.105000000
H     4.049000000    -1.934000000    -3.714000000
H     4.094000000    -0.517000000    -4.244000000
O     1.901000000    -1.996000000     6.046000000
H     1.823000000    -1.342000000     6.740000000
H     2.640000000    -1.698000000     5.517000000
O    -4.269000000    -1.984000000    -1.547000000
H    -4.987000000    -1.769000000    -0.951000000
H    -3.994000000    -1.139000000    -1.904000000
O     0.363000000    -4.205000000     3.411000000
H    -0.016000000    -3.398000000     3.760000000
H    -0.137000000    -4.378000000     2.613000000
O    -2.780000000    -4.010000000    -0.530000000
H    -3.181000000    -3.237000000    -0.927000000
H    -2.781000000    -4.665000000    -1.227000000
O     2.617000000     6.864000000     0.862000000
H     3.265000000     7.127000000     0.208000000
H     2.015000000     6.293000000     0.387000000
O     1.402000000    -8.035000000     1.894000000
H     1.057000000    -7.824000000     1.027000000
H     1.615000000    -8.967000000     1.847000000
O    -0.530000000     2.295000000    -5.190000000
H    -0.275000000     2.642000000    -6.045000000
H    -0.018000000     1.492000000    -5.096000000
O    -6.456000000     5.342000000    -0.946000000
H    -6.742000000     6.076000000    -1.488000000
H    -7.214000000     5.140000000    -0.397000000
O    -4.217000000     4.894000000     0.550000000
H    -3.826000000     4.122000000     0.141000000
H    -4.986000000     5.086000000     0.013000000
O     0.303000000     6.019000000    -2.783000000
H    -0.523000000     5.641000000    -3.087000000
H     0.076000000     6.911000000    -2.521000000
O    -6.977000000     2.295000000    -0.689000000
H    -6.178000000     2.648000000    -0.298000000
H    -6.927000000     1.353000000    -0.529000000
O    -0.611000000    -6.832000000    -0.858000000
H    -1.247000000    -7.074000000    -1.532000000
H    -0.103000000    -6.122000000    -1.252000000
O     3.692000000     2.071000000     1.349000000
H     3.475000000     1.442000000     2.037000000
H     2.928000000     2.645000000     1.299000000
O    -1.018000000     0.933000000     4.724000000
H    -0.235000000     0.849000000     4.179000000
H    -1.359000000     1.804000000     4.520000000
O     1.321000000     0.211000000    -4.916000000
H     1.996000000    -0.466000000    -4.871000000
H     0.559000000    -0.181000000    -4.489000000
O     0.737000000     0.896000000     2.595000000
H     0.641000000     0.632000000     1.680000000
H     0.756000000     1.853000000     2.567000000
O    -4.029000000     1.792000000     2.696000000
H    -3.299000000     2.377000000     2.894000000
H    -4.107000000     1.819000000     1.743000000
