144
-2849.03049
O    -2.200000000     2.849000000    -5.480000000
H    -1.444000000     3.436000000    -5.486000000
H    -2.213000000     2.484000000    -4.596000000
O    -1.355000000    -0.849000000    -5.113000000
H    -1.113000000    -0.135000000    -5.703000000
H    -1.713000000    -0.410000000    -4.341000000
O     0.089000000     4.762000000    -5.764000000
H     0.207000000     5.678000000    -5.512000000
H     0.698000000     4.279000000    -5.205000000
O     4.121000000    -3.431000000    -2.500000000
H     4.902000000    -3.983000000    -2.469000000
H     4.429000000    -2.565000000    -2.236000000
O    -6.296000000    -2.926000000     1.662000000
H    -6.076000000    -3.380000000     0.848000000
H    -6.065000000    -2.012000000     1.496000000
O    -7.021000000     2.423000000     2.329000000
H    -7.011000000     3.377000000     2.405000000
H    -7.082000000     2.258000000     1.388000000
O     5.914000000    -1.554000000    -1.173000000
H     6.241000000    -0.696000000    -0.903000000
H     6.694000000    -2.026000000    -1.467000000
O     0.324000000     0.979000000    -6.520000000
H     0.086000000     1.864000000    -6.795000000
H     1.083000000     1.102000000    -5.950000000
O     2.099000000     3.791000000     2.266000000
H     2.602000000     3.133000000     1.786000000
H     1.641000000     3.295000000     2.944000000
O    -3.050000000    -2.593000000     0.829000000
H    -2.882000000    -1.733000000     1.214000000
H    -2.890000000    -2.473000000    -0.107000000
O    -3.754000000    -1.507000000    -3.091000000
H    -4.291000000    -2.299000000    -3.080000000
H    -2.998000000    -1.722000000    -2.544000000
O    -1.680000000    -2.073000000    -1.491000000
H    -1.341000000    -1.280000000    -1.074000000
H    -0.901000000    -2.520000000    -1.823000000
O    -3.960000000    -0.691000000     4.619000000
H    -3.523000000    -0.464000000     3.799000000
H    -3.432000000    -1.401000000     4.985000000
O    -2.716000000     0.909000000    -3.457000000
H    -3.000000000     1.492000000    -2.753000000
H    -3.080000000     0.055000000    -3.223000000
O     0.521000000    -3.263000000    -2.514000000
H     1.061000000    -2.748000000    -3.113000000
H     0.426000000    -4.111000000    -2.946000000
O    -6.405000000     4.181000000    -0.659000000
H    -6.022000000     4.939000000    -1.100000000
H    -6.350000000     4.393000000     0.272000000
O    -5.823000000    -0.256000000     1.361000000
H    -5.050000000    -0.044000000     1.883000000
H    -5.764000000     0.322000000     0.600000000
O    -3.006000000     4.547000000    -1.311000000
H    -3.225000000     3.619000000    -1.230000000
H    -3.846000000     4.978000000    -1.473000000
O    -1.900000000    -2.221000000     5.901000000
H    -1.012000000    -2.486000000     5.663000000
H    -2.346000000    -3.040000000     6.116000000
O     5.836000000    -2.964000000     1.295000000
H     5.718000000    -2.360000000     0.562000000
H     6.770000000    -2.916000000     1.497000000
O     3.593000000    -5.704000000    -0.704000000
H     3.012000000    -5.044000000    -0.327000000
H     4.235000000    -5.201000000    -1.203000000
O    -4.854000000    -4.268000000    -0.079000000
H    -4.541000000    -5.173000000    -0.069000000
H    -4.138000000    -3.762000000     0.305000000
O    -5.218000000     1.783000000     4.234000000
H    -5.902000000     1.562000000     3.602000000
H    -4.691000000     0.986000000     4.304000000
O     4.923000000     0.598000000    -5.332000000
H     5.816000000     0.937000000    -5.268000000
H     5.020000000    -0.351000000    -5.252000000
O     3.334000000     1.818000000     0.973000000
H     2.786000000     1.244000000     0.438000000
H     4.126000000     1.949000000     0.450000000
O     0.815000000     1.632000000     3.237000000
H     1.085000000     0.740000000     3.456000000
H     0.295000000     1.536000000     2.439000000
O     6.420000000     0.332000000     2.543000000
H     5.549000000     0.103000000     2.868000000
H     6.994000000     0.223000000     3.301000000
O     4.276000000    -1.850000000     3.419000000
H     4.777000000    -2.321000000     4.085000000
H     4.465000000    -2.315000000     2.604000000
O     7.022000000     0.769000000    -0.384000000
H     7.147000000     0.647000000     0.557000000
H     6.383000000     1.479000000    -0.451000000
O    -6.143000000    -2.533000000     5.297000000
H    -6.244000000    -2.778000000     6.217000000
H    -5.526000000    -1.801000000     5.310000000
O     1.847000000     3.584000000    -3.972000000
H     1.346000000     3.802000000    -3.186000000
H     2.444000000     4.324000000    -4.088000000
O     1.443000000    -4.278000000    -0.049000000
H     1.350000000    -3.860000000    -0.905000000
H     0.795000000    -3.841000000     0.503000000
O     3.151000000    -3.599000000    -5.078000000
H     3.579000000    -3.800000000    -4.245000000
H     2.382000000    -3.084000000    -4.833000000
O     1.845000000    -0.807000000     3.779000000
H     2.761000000    -1.047000000     3.640000000
H     1.426000000    -1.619000000     4.066000000
O     0.290000000    -2.990000000     3.926000000
H     0.397000000    -3.879000000     4.263000000
H     0.154000000    -3.104000000     2.986000000
O     2.350000000     1.069000000    -4.802000000
H     2.336000000     1.993000000    -4.549000000
H     3.258000000     0.905000000    -5.058000000
O     0.531000000     4.922000000    -2.022000000
H     0.652000000     5.314000000    -1.157000000
H    -0.386000000     4.649000000    -2.035000000
O     2.250000000    -4.665000000     2.644000000
H     1.863000000    -4.952000000     1.817000000
H     3.194000000    -4.694000000     2.488000000
O     1.258000000    -1.368000000    -4.564000000
H     1.641000000    -0.491000000    -4.540000000
H     0.321000000    -1.217000000    -4.687000000
O    -1.849000000     6.389000000     0.405000000
H    -2.034000000     6.148000000     1.313000000
H    -2.197000000     5.662000000    -0.111000000
O    -4.176000000     3.661000000     2.476000000
H    -4.580000000     3.234000000     3.232000000
H    -3.837000000     2.939000000     1.947000000
O    -1.981000000     5.503000000     3.091000000
H    -1.374000000     4.969000000     3.604000000
H    -2.713000000     4.916000000     2.900000000
O    -3.997000000     1.990000000    -1.461000000
H    -4.890000000     2.268000000    -1.258000000
H    -3.593000000     1.839000000    -0.606000000
O     5.370000000     3.052000000    -0.529000000
H     5.688000000     3.215000000     0.359000000
H     5.640000000     3.824000000    -1.026000000
O    -6.009000000     5.662000000     2.480000000
H    -5.221000000     5.156000000     2.677000000
H    -6.236000000     6.084000000     3.309000000
O    -7.002000000     1.619000000    -0.551000000
H    -7.943000000     1.643000000    -0.727000000
H    -6.729000000     2.536000000    -0.582000000
O    -0.857000000    -4.157000000     1.758000000
H    -1.617000000    -3.582000000     1.661000000
H    -1.224000000    -4.991000000     2.052000000
O    -1.076000000     3.243000000     4.810000000
H    -1.755000000     2.844000000     5.354000000
H    -0.469000000     2.528000000     4.622000000
