144
-2801.25589
O    -1.743000000     3.344000000    -2.869000000
H    -2.206000000     3.755000000    -3.599000000
H    -1.633000000     4.047000000    -2.229000000
O    -2.098000000    -1.124000000    -4.837000000
H    -1.777000000    -0.344000000    -4.384000000
H    -2.229000000    -0.838000000    -5.741000000
O    -3.701000000    -6.674000000    -1.321000000
H    -4.299000000    -6.424000000    -0.617000000
H    -3.226000000    -5.870000000    -1.529000000
O     5.571000000    -2.600000000    -1.079000000
H     4.688000000    -2.781000000    -0.758000000
H     6.147000000    -2.881000000    -0.367000000
O    -5.106000000     1.646000000     5.992000000
H    -5.110000000     1.784000000     5.044000000
H    -4.326000000     2.109000000     6.298000000
O    -7.200000000     2.093000000     3.433000000
H    -6.245000000     2.100000000     3.362000000
H    -7.488000000     2.809000000     2.866000000
O    -1.484000000    -4.348000000    -1.893000000
H    -1.779000000    -4.178000000    -2.788000000
H    -0.667000000    -4.835000000    -1.998000000
O     6.977000000     0.886000000     2.584000000
H     6.126000000     0.513000000     2.353000000
H     7.541000000     0.673000000     1.841000000
O     0.462000000    -5.517000000    -3.195000000
H     1.365000000    -5.832000000    -3.156000000
H     0.518000000    -4.686000000    -3.667000000
O     3.066000000     4.051000000     2.583000000
H     3.730000000     3.381000000     2.747000000
H     3.384000000     4.824000000     3.050000000
O     4.521000000    -0.142000000     1.146000000
H     3.834000000     0.354000000     1.591000000
H     4.921000000     0.488000000     0.546000000
O     0.932000000    -2.669000000    -4.273000000
H     0.755000000    -2.019000000    -4.953000000
H     1.880000000    -2.794000000    -4.302000000
O     1.219000000     1.887000000    -4.936000000
H     0.852000000     1.455000000    -4.164000000
H     1.865000000     1.265000000    -5.273000000
O    -4.418000000    -3.015000000     1.104000000
H    -4.099000000    -2.135000000     1.306000000
H    -3.625000000    -3.528000000     0.947000000
O    -0.583000000     0.702000000    -3.169000000
H    -0.539000000     0.231000000    -2.337000000
H    -1.198000000     1.417000000    -3.008000000
O    -4.085000000    -1.487000000     3.714000000
H    -4.118000000    -0.896000000     2.962000000
H    -3.764000000    -2.314000000     3.355000000
O    -6.433000000    -1.128000000     5.214000000
H    -5.654000000    -1.269000000     4.676000000
H    -7.093000000    -0.807000000     4.600000000
O     6.554000000    -4.377000000    -2.999000000
H     6.807000000    -5.085000000    -2.406000000
H     6.221000000    -3.690000000    -2.422000000
O    -3.519000000     5.762000000     2.379000000
H    -3.842000000     6.032000000     1.519000000
H    -2.840000000     5.115000000     2.188000000
O    -4.525000000     2.479000000     3.390000000
H    -3.789000000     2.100000000     2.911000000
H    -4.198000000     3.322000000     3.705000000
O     0.869000000    -0.077000000     4.740000000
H     0.778000000    -0.738000000     4.054000000
H     0.382000000     0.679000000     4.411000000
O    -2.607000000     2.809000000     6.972000000
H    -1.773000000     2.412000000     7.223000000
H    -3.092000000     2.887000000     7.794000000
O     4.286000000    -2.942000000     1.799000000
H     4.305000000    -2.895000000     2.755000000
H     3.894000000    -2.113000000     1.526000000
O    -2.629000000    -3.568000000    -4.168000000
H    -2.531000000    -2.642000000    -4.389000000
H    -3.461000000    -3.823000000    -4.568000000
O    -0.640000000     2.106000000     4.460000000
H    -1.252000000     2.295000000     5.172000000
H    -1.195000000     1.806000000     3.740000000
O     1.833000000     4.266000000    -3.667000000
H     1.527000000     4.221000000    -2.761000000
H     1.760000000     3.368000000    -3.989000000
O    -4.153000000     2.124000000    -2.136000000
H    -3.356000000     2.634000000    -2.276000000
H    -4.369000000     1.774000000    -3.001000000
O     0.740000000    -1.813000000     2.415000000
H     0.467000000    -1.838000000     1.498000000
H     1.349000000    -2.546000000     2.503000000
O     2.714000000     1.351000000     5.947000000
H     2.291000000     1.851000000     6.645000000
H     2.002000000     0.858000000     5.540000000
O    -7.426000000    -2.505000000     1.377000000
H    -7.357000000    -1.653000000     1.809000000
H    -6.519000000    -2.779000000     1.242000000
O    -7.472000000     0.069000000    -1.977000000
H    -7.621000000    -0.749000000    -2.452000000
H    -6.680000000    -0.092000000    -1.465000000
O     4.533000000     1.356000000     3.871000000
H     3.797000000     1.144000000     4.444000000
H     5.308000000     1.215000000     4.414000000
O     5.741000000     1.885000000    -0.136000000
H     6.616000000     2.231000000     0.040000000
H     5.229000000     2.650000000    -0.397000000
O     3.266000000     3.939000000    -0.277000000
H     2.639000000     4.441000000    -0.797000000
H     2.846000000     3.843000000     0.578000000
O    -0.767000000     5.293000000    -0.708000000
H    -0.286000000     5.851000000    -0.097000000
H    -1.177000000     4.628000000    -0.154000000
O    -4.982000000    -2.142000000    -2.549000000
H    -4.234000000    -2.074000000    -3.141000000
H    -4.853000000    -1.433000000    -1.918000000
O     6.282000000    -0.225000000    -2.129000000
H     6.059000000    -1.033000000    -1.666000000
H     5.818000000     0.462000000    -1.650000000
O    -2.768000000    -0.377000000     5.856000000
H    -2.742000000    -0.592000000     4.924000000
H    -3.586000000     0.107000000     5.967000000
O    -2.077000000    -4.511000000     0.725000000
H    -1.670000000    -4.208000000    -0.086000000
H    -1.686000000    -5.371000000     0.883000000
O     3.676000000    -2.151000000    -4.440000000
H     4.441000000    -2.064000000    -5.009000000
H     4.040000000    -2.298000000    -3.568000000
O    -0.171000000    -4.357000000    -6.439000000
H    -0.813000000    -4.929000000    -6.018000000
H     0.205000000    -3.849000000    -5.721000000
O    -1.718000000     3.923000000     1.784000000
H    -0.906000000     4.172000000     2.224000000
H    -1.979000000     3.105000000     2.207000000
O    -1.949000000    -3.581000000     3.315000000
H    -1.915000000    -3.766000000     2.377000000
H    -1.160000000    -3.067000000     3.486000000
O    -4.780000000    -0.234000000    -0.687000000
H    -4.228000000    -0.290000000     0.093000000
H    -4.694000000     0.674000000    -0.976000000
O     0.678000000     4.429000000     3.587000000
H     0.265000000     3.588000000     3.783000000
H     1.617000000     4.257000000     3.659000000
O     5.264000000     5.541000000     0.504000000
H     5.736000000     4.844000000     0.960000000
H     4.543000000     5.092000000     0.062000000
O     1.452000000    -5.946000000     0.394000000
H     1.871000000    -5.190000000    -0.017000000
H     2.101000000    -6.271000000     1.017000000
O     2.777000000    -0.053000000    -5.931000000
H     3.070000000    -0.775000000    -5.374000000
H     1.948000000    -0.358000000    -6.300000000
