144
-2805.38638
O    -2.794000000     2.726000000    -1.132000000
H    -2.681000000     3.675000000    -1.186000000
H    -2.109000000     2.437000000    -0.530000000
O     4.763000000    -4.379000000     0.209000000
H     5.224000000    -5.166000000    -0.082000000
H     4.830000000    -4.401000000     1.163000000
O    -0.693000000    -1.160000000    -4.423000000
H    -0.605000000    -0.346000000    -3.928000000
H    -1.185000000    -0.913000000    -5.205000000
O     0.778000000     3.082000000    -5.757000000
H     1.401000000     3.775000000    -5.979000000
H     1.309000000     2.413000000    -5.325000000
O     5.781000000    -2.920000000    -1.946000000
H     6.711000000    -3.116000000    -1.829000000
H     5.338000000    -3.469000000    -1.299000000
O    -4.380000000     0.599000000     6.349000000
H    -4.298000000     1.209000000     5.616000000
H    -4.925000000     1.062000000     6.986000000
O    -6.598000000     0.511000000     4.179000000
H    -5.784000000     0.908000000     4.491000000
H    -6.556000000     0.597000000     3.227000000
O    -3.485000000    -5.025000000    -2.173000000
H    -3.712000000    -4.557000000    -2.977000000
H    -2.561000000    -4.822000000    -2.031000000
O    -0.688000000    -4.681000000    -1.445000000
H     0.182000000    -4.361000000    -1.207000000
H    -0.520000000    -5.451000000    -1.988000000
O     4.414000000     1.994000000     1.185000000
H     4.977000000     2.556000000     1.717000000
H     3.968000000     2.597000000     0.590000000
O     2.125000000    -3.429000000    -4.253000000
H     1.689000000    -2.959000000    -3.542000000
H     3.044000000    -3.169000000    -4.185000000
O     1.612000000     2.475000000    -2.698000000
H     2.248000000     1.820000000    -2.984000000
H     0.764000000     2.038000000    -2.779000000
O    -3.699000000    -3.161000000     0.943000000
H    -4.135000000    -2.875000000     0.140000000
H    -3.557000000    -2.355000000     1.439000000
O     1.366000000    -3.071000000    -6.815000000
H     1.525000000    -3.404000000    -5.932000000
H     0.659000000    -2.434000000    -6.708000000
O     2.594000000    -5.892000000    -2.882000000
H     2.742000000    -5.135000000    -2.314000000
H     2.637000000    -5.537000000    -3.770000000
O    -0.835000000     1.449000000    -2.827000000
H    -1.431000000     2.193000000    -2.915000000
H    -0.858000000     1.231000000    -1.895000000
O    -4.237000000    -1.548000000     3.685000000
H    -3.935000000    -1.126000000     2.881000000
H    -5.084000000    -1.927000000     3.452000000
O    -4.670000000     5.086000000     2.617000000
H    -5.020000000     4.833000000     1.763000000
H    -3.768000000     4.767000000     2.611000000
O    -4.353000000     2.095000000     4.173000000
H    -3.817000000     1.837000000     3.423000000
H    -4.024000000     2.960000000     4.416000000
O     3.363000000     0.682000000     3.587000000
H     3.544000000     1.148000000     2.771000000
H     2.623000000     0.112000000     3.378000000
O    -7.099000000     3.640000000     3.668000000
H    -6.162000000     3.782000000     3.538000000
H    -7.334000000     2.980000000     3.015000000
O     7.832000000    -2.835000000     0.562000000
H     7.262000000    -2.114000000     0.296000000
H     7.646000000    -2.956000000     1.493000000
O     1.688000000    -4.217000000     0.141000000
H     1.479000000    -4.289000000     1.073000000
H     2.643000000    -4.157000000     0.115000000
O     6.209000000     0.199000000    -0.278000000
H     5.903000000     0.640000000     0.515000000
H     5.474000000    -0.355000000    -0.542000000
O    -2.437000000    -3.412000000    -4.147000000
H    -1.504000000    -3.238000000    -4.267000000
H    -2.876000000    -2.722000000    -4.645000000
O    -0.956000000     0.682000000     4.605000000
H    -1.422000000    -0.152000000     4.666000000
H    -1.552000000     1.254000000     4.120000000
O     2.294000000     3.622000000    -0.526000000
H     2.435000000     4.555000000    -0.686000000
H     2.117000000     3.254000000    -1.392000000
O    -5.229000000     1.906000000    -1.862000000
H    -4.366000000     2.258000000    -1.646000000
H    -5.075000000     1.341000000    -2.620000000
O     1.411000000    -1.189000000     3.188000000
H     0.835000000    -0.936000000     2.467000000
H     1.239000000    -2.122000000     3.316000000
O     0.895000000    -0.158000000     6.701000000
H     0.221000000    -0.100000000     7.379000000
H     0.405000000    -0.188000000     5.879000000
O    -6.800000000    -2.237000000     1.993000000
H    -7.403000000    -2.012000000     2.701000000
H    -6.476000000    -1.393000000     1.678000000
O    -7.087000000    -0.248000000    -3.411000000
H    -7.408000000    -1.148000000    -3.345000000
H    -6.137000000    -0.326000000    -3.320000000
O     5.482000000     4.164000000    -0.862000000
H     6.400000000     4.152000000    -0.593000000
H     5.058000000     4.755000000    -0.241000000
O     0.457000000     3.994000000     1.780000000
H     0.914000000     4.290000000     0.992000000
H     1.070000000     3.391000000     2.200000000
O     5.849000000     0.586000000    -4.201000000
H     6.026000000     1.264000000    -3.548000000
H     5.957000000     1.030000000    -5.042000000
O     0.700000000     5.659000000     4.031000000
H     0.509000000     4.923000000     3.450000000
H     1.045000000     5.253000000     4.826000000
O    -5.669000000    -2.315000000    -1.269000000
H    -5.958000000    -1.796000000    -0.518000000
H    -6.471000000    -2.492000000    -1.761000000
O    -4.421000000    -0.454000000    -3.010000000
H    -3.866000000    -0.891000000    -3.656000000
H    -4.492000000    -1.082000000    -2.291000000
O     6.813000000     2.126000000    -2.136000000
H     6.837000000     1.397000000    -1.516000000
H     6.176000000     2.735000000    -1.765000000
O    -2.235000000    -1.572000000     5.462000000
H    -2.881000000    -1.568000000     4.755000000
H    -2.750000000    -1.436000000     6.257000000
O    -0.784000000    -5.268000000     1.267000000
H    -0.635000000    -6.188000000     1.048000000
H    -1.071000000    -4.869000000     0.446000000
O     4.551000000    -2.152000000    -4.434000000
H     5.036000000    -2.317000000    -3.626000000
H     4.714000000    -1.229000000    -4.628000000
O    -5.533000000     4.196000000     0.211000000
H    -5.463000000     3.447000000    -0.382000000
H    -6.390000000     4.574000000     0.019000000
O    -2.274000000     4.066000000     2.259000000
H    -1.337000000     4.055000000     2.064000000
H    -2.521000000     3.142000000     2.305000000
O    -3.985000000    -5.275000000     2.781000000
H    -3.114000000    -5.035000000     3.099000000
H    -4.218000000    -4.574000000     2.171000000
O    -5.796000000     0.016000000     0.683000000
H    -4.927000000    -0.092000000     1.068000000
H    -5.801000000     0.914000000     0.350000000
O     1.265000000     2.141000000     4.008000000
H     0.581000000     1.485000000     4.140000000
H     2.076000000     1.635000000     3.956000000
O     2.338000000    -0.142000000    -5.101000000
H     2.448000000     0.011000000    -6.040000000
H     1.472000000    -0.542000000    -5.024000000
