144
-2807.51169
O    -0.552000000     4.915000000    -2.004000000
H    -0.922000000     4.972000000    -1.123000000
H     0.266000000     4.431000000    -1.889000000
O    -1.935000000    -2.562000000    -5.475000000
H    -1.735000000    -1.626000000    -5.511000000
H    -2.357000000    -2.683000000    -4.624000000
O     5.520000000    -0.853000000     0.679000000
H     5.627000000    -0.148000000     0.040000000
H     5.843000000    -1.634000000     0.230000000
O    -4.788000000    -1.263000000    -1.535000000
H    -3.838000000    -1.160000000    -1.594000000
H    -5.140000000    -0.521000000    -2.026000000
O    -5.777000000     1.387000000    -0.178000000
H    -5.261000000     1.289000000    -0.979000000
H    -5.283000000     2.013000000     0.351000000
O     1.146000000     5.296000000     2.873000000
H     0.932000000     4.440000000     3.244000000
H     0.328000000     5.791000000     2.927000000
O    -4.582000000     5.320000000     3.543000000
H    -4.164000000     5.222000000     4.398000000
H    -4.898000000     4.442000000     3.329000000
O    -0.731000000     1.903000000    -2.929000000
H    -0.034000000     2.238000000    -2.364000000
H    -1.535000000     2.266000000    -2.559000000
O    -0.992000000    -0.842000000     3.852000000
H    -1.571000000    -0.126000000     3.588000000
H    -1.153000000    -1.530000000     3.207000000
O     4.317000000     3.455000000    -0.877000000
H     4.231000000     3.873000000    -0.020000000
H     4.734000000     4.119000000    -1.427000000
O    -4.056000000    -3.629000000    -3.520000000
H    -4.457000000    -4.351000000    -4.005000000
H    -4.375000000    -2.841000000    -3.959000000
O    -3.964000000     2.934000000     1.288000000
H    -3.595000000     2.506000000     2.060000000
H    -3.338000000     3.626000000     1.076000000
O    -1.315000000     6.864000000     2.794000000
H    -1.463000000     7.192000000     3.681000000
H    -2.086000000     7.147000000     2.302000000
O    -1.828000000     3.086000000     5.199000000
H    -2.044000000     2.234000000     5.578000000
H    -1.438000000     2.879000000     4.350000000
O     3.321000000    -2.695000000    -4.801000000
H     3.398000000    -3.310000000    -5.531000000
H     2.641000000    -2.081000000    -5.077000000
O    -1.565000000    -0.336000000     6.334000000
H    -2.497000000    -0.170000000     6.472000000
H    -1.516000000    -0.714000000     5.456000000
O     3.529000000     1.902000000     3.155000000
H     3.986000000     2.480000000     2.544000000
H     3.193000000     2.488000000     3.834000000
O     4.123000000     3.212000000    -5.332000000
H     5.071000000     3.163000000    -5.211000000
H     3.849000000     2.301000000    -5.445000000
O     0.600000000    -3.916000000     0.069000000
H     0.987000000    -3.137000000     0.470000000
H     1.302000000    -4.286000000    -0.465000000
O    -1.570000000    -5.326000000    -3.010000000
H    -2.221000000    -4.625000000    -3.020000000
H    -1.797000000    -5.875000000    -3.760000000
O    -2.029000000    -4.530000000    -0.208000000
H    -2.098000000    -4.819000000    -1.118000000
H    -1.118000000    -4.250000000    -0.115000000
O     5.451000000     0.202000000     3.375000000
H     5.440000000    -0.125000000     2.475000000
H     4.693000000     0.785000000     3.427000000
O     0.975000000     1.796000000     4.901000000
H     1.393000000     0.967000000     4.671000000
H     0.507000000     2.057000000     4.108000000
O     5.836000000    -1.886000000    -4.260000000
H     6.363000000    -2.185000000    -5.001000000
H     4.973000000    -2.271000000    -4.408000000
O    -1.356000000    -2.890000000     2.245000000
H    -1.099000000    -3.805000000     2.359000000
H    -1.044000000    -2.662000000     1.369000000
O     0.344000000     3.063000000     7.382000000
H     0.458000000     3.822000000     6.810000000
H     0.472000000     2.308000000     6.807000000
O     2.053000000    -0.957000000     3.889000000
H     2.617000000    -0.999000000     3.116000000
H     1.175000000    -0.811000000     3.536000000
O     3.339000000     0.668000000    -6.023000000
H     3.999000000     0.396000000    -6.660000000
H     2.658000000    -0.002000000    -6.083000000
O    -4.171000000     1.485000000     5.504000000
H    -4.324000000     2.004000000     4.715000000
H    -4.757000000     1.865000000     6.159000000
O    -1.532000000     4.527000000     0.799000000
H    -0.939000000     3.895000000     1.204000000
H    -1.554000000     5.262000000     1.412000000
O     1.077000000    -1.181000000    -6.085000000
H     1.007000000    -1.736000000    -6.861000000
H     0.212000000    -0.781000000    -5.997000000
O     5.522000000     1.022000000    -1.513000000
H     5.277000000     1.880000000    -1.165000000
H     5.971000000     1.216000000    -2.335000000
O    -3.460000000    -2.859000000     4.612000000
H    -3.898000000    -2.181000000     4.098000000
H    -3.698000000    -2.664000000     5.519000000
O     3.017000000    -4.437000000    -2.284000000
H     3.089000000    -3.831000000    -3.021000000
H     3.717000000    -4.172000000    -1.687000000
O    -6.340000000    -0.188000000     5.343000000
H    -6.640000000    -0.669000000     6.115000000
H    -5.557000000     0.276000000     5.638000000
O    -3.776000000    -4.466000000     1.729000000
H    -4.246000000    -3.677000000     1.462000000
H    -3.171000000    -4.641000000     1.009000000
O    -5.536000000    -2.024000000     1.456000000
H    -5.785000000    -1.630000000     0.620000000
H    -5.194000000    -1.294000000     1.973000000
O     1.474000000     2.978000000    -1.390000000
H     1.503000000     2.420000000    -0.612000000
H     2.391000000     3.075000000    -1.649000000
O     1.183000000    -6.206000000    -3.243000000
H     1.704000000    -5.562000000    -2.763000000
H     0.358000000    -5.757000000    -3.429000000
O    -2.537000000    -0.394000000    -3.234000000
H    -1.692000000    -0.007000000    -3.005000000
H    -3.038000000     0.330000000    -3.612000000
O    -6.126000000     2.882000000     3.967000000
H    -6.795000000     3.193000000     4.576000000
H    -6.619000000     2.441000000     3.275000000
O    -4.441000000    -0.173000000     3.063000000
H    -3.526000000     0.090000000     2.968000000
H    -4.785000000     0.400000000     3.749000000
O     3.463000000     4.867000000     1.430000000
H     4.020000000     5.179000000     2.142000000
H     2.570000000     4.983000000     1.755000000
O     3.501000000    -1.853000000     1.848000000
H     3.536000000    -2.804000000     1.746000000
H     4.239000000    -1.528000000     1.332000000
O    -1.176000000     0.132000000    -6.389000000
H    -1.495000000     0.907000000    -5.926000000
H    -1.351000000     0.315000000    -7.312000000
O    -5.243000000    -4.195000000    -0.812000000
H    -5.241000000    -3.257000000    -0.622000000
H    -4.886000000    -4.261000000    -1.697000000
O    -3.374000000     5.143000000     5.986000000
H    -2.816000000     4.378000000     5.845000000
H    -2.764000000     5.851000000     6.194000000
O     5.272000000    -4.167000000    -0.693000000
H     5.923000000    -4.545000000    -0.102000000
H     5.776000000    -3.585000000    -1.263000000
