144
-2813.16472
O    -0.306000000     3.436000000    -1.430000000
H     0.111000000     2.597000000    -1.622000000
H    -1.136000000     3.202000000    -1.016000000
O    -6.261000000    -1.745000000    -2.900000000
H    -6.162000000    -1.337000000    -2.040000000
H    -6.286000000    -2.685000000    -2.718000000
O     5.673000000    -1.513000000     0.804000000
H     5.719000000    -1.025000000    -0.019000000
H     5.250000000    -0.911000000     1.416000000
O    -1.988000000     3.942000000     4.590000000
H    -2.690000000     3.292000000     4.635000000
H    -1.534000000     3.747000000     3.770000000
O    -2.277000000    -3.512000000    -3.283000000
H    -2.798000000    -3.884000000    -3.994000000
H    -1.758000000    -2.824000000    -3.700000000
O    -5.883000000    -2.454000000     1.470000000
H    -6.650000000    -2.573000000     0.910000000
H    -5.308000000    -3.186000000     1.249000000
O    -4.727000000     1.335000000    -2.599000000
H    -5.158000000     1.790000000    -3.323000000
H    -4.558000000     2.020000000    -1.953000000
O     1.440000000     4.374000000     2.271000000
H     0.493000000     4.507000000     2.231000000
H     1.799000000     5.251000000     2.408000000
O    -0.320000000     1.352000000    -3.445000000
H     0.517000000     1.806000000    -3.541000000
H    -0.978000000     2.040000000    -3.541000000
O    -2.113000000    -1.572000000     2.490000000
H    -2.504000000    -0.781000000     2.860000000
H    -1.466000000    -1.248000000     1.862000000
O     3.790000000     4.298000000    -2.609000000
H     3.696000000     4.124000000    -1.672000000
H     3.939000000     5.242000000    -2.663000000
O    -4.736000000     3.346000000    -0.622000000
H    -5.122000000     3.677000000     0.189000000
H    -3.861000000     3.733000000    -0.646000000
O    -4.920000000     4.345000000     1.922000000
H    -4.774000000     3.768000000     2.672000000
H    -5.130000000     5.194000000     2.311000000
O    -4.310000000     2.524000000     3.975000000
H    -4.977000000     1.837000000     3.963000000
H    -3.642000000     2.219000000     3.361000000
O     2.585000000    -3.294000000    -5.272000000
H     2.196000000    -3.806000000    -5.982000000
H     2.003000000    -3.439000000    -4.526000000
O    -2.484000000    -0.287000000     4.880000000
H    -2.534000000    -1.195000000     4.582000000
H    -3.393000000    -0.040000000     5.050000000
O     3.225000000     3.027000000     4.002000000
H     2.506000000     3.451000000     3.534000000
H     3.227000000     3.441000000     4.865000000
O     0.534000000     5.720000000    -0.660000000
H     0.093000000     4.976000000    -1.070000000
H    -0.012000000     5.936000000     0.095000000
O     5.729000000    -4.230000000     0.854000000
H     6.179000000    -4.371000000     1.687000000
H     5.553000000    -3.289000000     0.832000000
O     3.055000000     0.700000000    -4.654000000
H     3.828000000     0.977000000    -5.144000000
H     3.247000000    -0.200000000    -4.392000000
O     0.214000000    -5.255000000    -0.965000000
H     0.109000000    -5.668000000    -0.108000000
H     0.703000000    -5.895000000    -1.481000000
O     0.774000000    -4.809000000    -3.822000000
H     0.248000000    -4.379000000    -3.147000000
H     0.131000000    -5.185000000    -4.423000000
O     4.177000000     0.420000000     2.585000000
H     4.841000000     0.826000000     2.027000000
H     3.819000000     1.145000000     3.096000000
O    -0.003000000     1.053000000     4.654000000
H    -0.802000000     0.555000000     4.482000000
H    -0.146000000     1.893000000     4.217000000
O    -3.601000000    -0.610000000    -4.123000000
H    -3.592000000     0.041000000    -3.421000000
H    -4.516000000    -0.881000000    -4.188000000
O    -0.701000000     6.793000000     1.459000000
H    -1.449000000     7.252000000     1.841000000
H    -0.073000000     6.719000000     2.178000000
O    -2.596000000     6.553000000     4.023000000
H    -2.698000000     5.613000000     4.175000000
H    -1.666000000     6.721000000     4.180000000
O    -1.859000000    -4.190000000     2.854000000
H    -2.668000000    -4.322000000     2.359000000
H    -1.772000000    -3.239000000     2.921000000
O     1.189000000    -1.845000000     1.935000000
H     0.319000000    -2.231000000     1.836000000
H     1.062000000    -0.916000000     1.742000000
O     4.277000000    -1.634000000    -6.454000000
H     4.878000000    -2.282000000    -6.821000000
H     3.643000000    -2.150000000    -5.955000000
O    -2.817000000     5.269000000     0.348000000
H    -2.141000000     5.754000000     0.822000000
H    -3.436000000     4.997000000     1.025000000
O    -1.418000000     0.674000000     7.562000000
H    -1.529000000     0.515000000     6.624000000
H    -1.605000000    -0.170000000     7.972000000
O     3.620000000    -2.381000000     3.136000000
H     3.827000000    -1.447000000     3.182000000
H     2.930000000    -2.441000000     2.475000000
O    -6.098000000    -0.224000000    -0.725000000
H    -5.704000000     0.458000000    -1.269000000
H    -5.831000000    -0.002000000     0.167000000
O     5.641000000    -0.210000000    -1.805000000
H     5.730000000     0.575000000    -2.346000000
H     6.469000000    -0.676000000    -1.921000000
O    -2.368000000    -4.121000000    -0.703000000
H    -1.471000000    -4.376000000    -0.487000000
H    -2.302000000    -3.728000000    -1.573000000
O     0.027000000    -1.382000000    -6.593000000
H    -0.509000000    -1.328000000    -5.802000000
H     0.198000000    -2.317000000    -6.704000000
O    -4.254000000    -4.471000000     1.133000000
H    -4.821000000    -5.219000000     0.947000000
H    -3.573000000    -4.513000000     0.462000000
O     6.262000000     1.361000000     0.928000000
H     6.942000000     0.975000000     0.376000000
H     6.135000000     2.240000000     0.573000000
O     4.783000000    -2.557000000    -3.068000000
H     4.759000000    -1.626000000    -2.843000000
H     4.330000000    -2.611000000    -3.909000000
O     1.846000000     3.065000000    -3.881000000
H     2.446000000     3.502000000    -3.276000000
H     2.262000000     2.223000000    -4.066000000
O     3.218000000    -6.170000000    -3.266000000
H     4.008000000    -5.769000000    -3.628000000
H     2.498000000    -5.665000000    -3.645000000
O    -0.954000000    -1.146000000    -4.205000000
H    -0.547000000    -0.343000000    -3.879000000
H    -1.894000000    -0.967000000    -4.176000000
O    -6.964000000     1.279000000     3.281000000
H    -7.692000000     1.267000000     2.659000000
H    -6.297000000     0.722000000     2.880000000
O    -4.867000000     0.066000000     2.065000000
H    -4.136000000     0.651000000     1.866000000
H    -4.491000000    -0.813000000     2.012000000
O     3.387000000     3.755000000     0.184000000
H     3.229000000     2.932000000    -0.278000000
H     2.531000000     4.002000000     0.534000000
O     2.867000000    -6.129000000     1.408000000
H     3.210000000    -5.442000000     0.836000000
H     2.744000000    -6.883000000     0.830000000
O     5.602000000    -4.847000000    -1.700000000
H     5.752000000    -4.838000000    -0.755000000
H     5.249000000    -3.979000000    -1.895000000
