144
-2840.48663
O     0.908000000     0.270000000    -5.315000000
H     0.896000000     0.585000000    -6.219000000
H     1.159000000     1.035000000    -4.798000000
O    -2.132000000    -6.620000000    -0.840000000
H    -2.714000000    -6.991000000    -1.503000000
H    -1.352000000    -6.355000000    -1.327000000
O    -4.865000000    -2.671000000    -4.283000000
H    -4.572000000    -1.802000000    -4.556000000
H    -4.235000000    -2.936000000    -3.612000000
O     4.407000000     4.876000000    -0.970000000
H     5.041000000     4.181000000    -0.792000000
H     4.026000000     5.077000000    -0.115000000
O     0.053000000    -4.189000000     2.944000000
H    -0.338000000    -4.664000000     3.678000000
H     0.595000000    -4.841000000     2.499000000
O    -4.029000000     1.047000000    -1.294000000
H    -4.585000000     0.326000000    -1.001000000
H    -3.321000000     0.623000000    -1.779000000
O     0.884000000     4.761000000     3.934000000
H     0.308000000     4.195000000     3.420000000
H     1.557000000     5.043000000     3.315000000
O     2.098000000    -2.350000000     2.470000000
H     2.199000000    -2.351000000     3.422000000
H     1.218000000    -2.696000000     2.322000000
O     4.423000000    -0.529000000    -3.545000000
H     5.060000000    -1.224000000    -3.713000000
H     3.575000000    -0.930000000    -3.733000000
O    -3.032000000     3.543000000     2.864000000
H    -2.138000000     3.413000000     2.546000000
H    -3.166000000     4.489000000     2.823000000
O    -3.910000000     6.103000000    -0.064000000
H    -3.958000000     6.407000000     0.842000000
H    -3.519000000     5.231000000    -0.004000000
O    -4.009000000     3.332000000     5.349000000
H    -4.389000000     4.209000000     5.304000000
H    -3.552000000     3.226000000     4.514000000
O    -5.723000000     0.817000000     1.732000000
H    -6.151000000     0.839000000     2.588000000
H    -6.002000000     1.626000000     1.304000000
O     3.332000000     3.041000000    -2.768000000
H     3.550000000     2.309000000    -2.191000000
H     3.630000000     3.817000000    -2.294000000
O    -3.341000000    -0.145000000     3.396000000
H    -3.891000000     0.215000000     2.700000000
H    -3.770000000     0.132000000     4.206000000
O     3.516000000     2.963000000     2.412000000
H     4.284000000     2.699000000     1.905000000
H     3.154000000     3.705000000     1.928000000
O    -1.682000000     0.509000000    -2.615000000
H    -1.330000000     1.132000000    -3.250000000
H    -1.253000000     0.739000000    -1.790000000
O     2.633000000     1.517000000     4.713000000
H     2.930000000     2.000000000     3.941000000
H     1.677000000     1.565000000     4.671000000
O    -1.598000000    -2.919000000    -6.274000000
H    -2.516000000    -2.690000000    -6.419000000
H    -1.339000000    -2.397000000    -5.515000000
O     1.710000000    -1.990000000    -4.428000000
H     1.274000000    -1.157000000    -4.607000000
H     2.017000000    -2.288000000    -5.284000000
O     4.229000000    -5.043000000     2.175000000
H     4.864000000    -5.158000000     2.882000000
H     4.751000000    -4.739000000     1.432000000
O     5.086000000    -3.421000000    -0.425000000
H     5.376000000    -4.332000000    -0.467000000
H     4.535000000    -3.309000000    -1.200000000
O    -2.462000000     4.351000000    -2.087000000
H    -2.831000000     3.510000000    -1.818000000
H    -3.221000000     4.927000000    -2.181000000
O     3.413000000    -3.370000000    -2.689000000
H     3.207000000    -4.206000000    -3.106000000
H     2.775000000    -2.757000000    -3.054000000
O     1.197000000     2.933000000    -4.578000000
H     1.910000000     2.951000000    -3.939000000
H     0.610000000     3.637000000    -4.300000000
O    -0.811000000     4.562000000    -4.127000000
H    -1.063000000     5.406000000    -4.503000000
H    -1.374000000     4.465000000    -3.359000000
O     5.560000000     2.667000000     0.360000000
H     5.347000000     1.775000000     0.086000000
H     6.517000000     2.699000000     0.345000000
O     0.055000000    -0.067000000     6.939000000
H     1.004000000    -0.007000000     7.047000000
H    -0.134000000     0.489000000     6.183000000
O     1.899000000     6.826000000    -3.241000000
H     1.406000000     6.354000000    -2.569000000
H     2.789000000     6.479000000    -3.174000000
O    -0.723000000     7.862000000     3.051000000
H     0.191000000     8.001000000     3.296000000
H    -0.714000000     7.055000000     2.537000000
O    -0.794000000    -5.518000000    -2.964000000
H    -1.254000000    -6.223000000    -3.419000000
H    -0.747000000    -4.809000000    -3.606000000
O     1.275000000     5.833000000     6.335000000
H     1.300000000     5.527000000     5.429000000
H     1.518000000     6.758000000     6.282000000
O     1.522000000    -6.188000000    -1.444000000
H     0.995000000    -5.550000000    -1.925000000
H     1.434000000    -6.999000000    -1.944000000
O    -2.095000000    -2.279000000    -3.310000000
H    -1.727000000    -1.501000000    -2.892000000
H    -2.455000000    -2.792000000    -2.586000000
O     2.371000000     5.089000000     1.442000000
H     1.642000000     4.631000000     1.024000000
H     2.253000000     6.005000000     1.192000000
O    -1.866000000    -1.794000000     5.524000000
H    -1.905000000    -1.376000000     4.663000000
H    -1.427000000    -1.151000000     6.082000000
O    -0.029000000     2.018000000     4.706000000
H    -0.377000000     2.273000000     3.851000000
H     0.251000000     2.841000000     5.106000000
O    -2.492000000    -4.337000000     0.929000000
H    -2.586000000    -5.202000000     0.531000000
H    -1.546000000    -4.199000000     0.982000000
O     0.483000000     5.372000000    -1.584000000
H    -0.346000000     5.040000000    -1.930000000
H     0.631000000     4.862000000    -0.788000000
O    -4.263000000    -2.635000000     2.496000000
H    -3.653000000    -3.203000000     2.026000000
H    -3.749000000    -1.855000000     2.707000000
O     3.728000000    -1.117000000     0.682000000
H     3.974000000    -1.912000000     0.209000000
H     2.968000000    -1.374000000     1.204000000
O     5.022000000     0.461000000    -1.135000000
H     4.555000000    -0.102000000    -0.518000000
H     4.952000000     0.007000000    -1.974000000
O    -4.194000000     3.310000000     0.339000000
H    -3.885000000     3.135000000     1.228000000
H    -4.156000000     2.460000000    -0.100000000
O    -3.716000000    -2.870000000    -1.279000000
H    -3.435000000    -3.253000000    -0.448000000
H    -4.359000000    -2.205000000    -1.031000000
O     0.673000000    -5.090000000    -5.773000000
H     0.875000000    -4.233000000    -6.149000000
H     1.523000000    -5.445000000    -5.514000000
O     1.670000000    -5.852000000     1.304000000
H     2.544000000    -5.489000000     1.452000000
H     1.635000000    -6.014000000     0.361000000
O    -5.633000000    -0.935000000    -0.391000000
H    -6.292000000    -0.609000000    -1.004000000
H    -5.788000000    -0.437000000     0.412000000
O    -1.190000000     5.804000000     1.041000000
H    -1.305000000     6.117000000     0.144000000
H    -0.468000000     5.178000000     0.986000000
