144
-2824.45248
O    -3.328000000     3.574000000     3.549000000
H    -2.888000000     4.387000000     3.798000000
H    -2.723000000     3.151000000     2.940000000
O     4.445000000     0.480000000    -5.627000000
H     3.607000000     0.860000000    -5.361000000
H     4.246000000     0.003000000    -6.432000000
O     7.080000000     0.391000000     0.643000000
H     7.691000000     0.811000000     0.037000000
H     6.363000000     0.086000000     0.086000000
O    -2.616000000     0.739000000    -4.769000000
H    -3.254000000     0.025000000    -4.751000000
H    -2.594000000     1.063000000    -3.868000000
O    -5.195000000     5.842000000     3.567000000
H    -4.453000000     5.382000000     3.175000000
H    -4.799000000     6.432000000     4.208000000
O     3.083000000     1.255000000     3.161000000
H     2.218000000     1.596000000     2.934000000
H     3.111000000     0.386000000     2.760000000
O     1.941000000    -2.268000000     1.542000000
H     1.034000000    -2.138000000     1.816000000
H     1.938000000    -3.115000000     1.096000000
O     4.059000000    -3.510000000    -3.796000000
H     3.454000000    -2.772000000    -3.727000000
H     3.586000000    -4.245000000    -3.405000000
O    -0.348000000     2.605000000     5.180000000
H    -0.112000000     2.979000000     4.331000000
H     0.443000000     2.151000000     5.470000000
O     0.096000000     5.456000000     2.614000000
H     0.974000000     5.836000000     2.635000000
H     0.226000000     4.573000000     2.268000000
O    -3.502000000     2.721000000     0.817000000
H    -4.006000000     3.523000000     0.682000000
H    -2.709000000     3.009000000     1.270000000
O    -3.426000000     5.574000000     0.904000000
H    -3.253000000     6.394000000     0.442000000
H    -2.581000000     5.330000000     1.283000000
O    -4.777000000     2.602000000     5.730000000
H    -5.576000000     2.618000000     5.203000000
H    -4.129000000     3.062000000     5.197000000
O    -6.059000000    -2.586000000    -0.466000000
H    -7.000000000    -2.502000000    -0.615000000
H    -5.937000000    -2.332000000     0.449000000
O    -0.108000000     0.074000000    -5.951000000
H    -0.380000000     0.004000000    -6.866000000
H    -0.869000000     0.443000000    -5.503000000
O     4.620000000    -5.001000000    -0.416000000
H     4.639000000    -5.618000000    -1.147000000
H     5.533000000    -4.737000000    -0.302000000
O    -2.495000000    -3.255000000     3.466000000
H    -2.962000000    -3.336000000     2.635000000
H    -1.824000000    -3.937000000     3.431000000
O    -3.073000000     1.547000000    -2.000000000
H    -2.787000000     1.843000000    -1.136000000
H    -3.786000000     0.935000000    -1.819000000
O     5.184000000     2.172000000     1.634000000
H     4.513000000     1.711000000     2.138000000
H     5.926000000     1.568000000     1.615000000
O     5.885000000     3.721000000    -0.638000000
H     5.764000000     3.196000000     0.153000000
H     5.077000000     4.230000000    -0.714000000
O    -1.272000000    -3.126000000    -5.876000000
H    -0.859000000    -3.261000000    -6.729000000
H    -0.936000000    -2.281000000    -5.579000000
O     2.876000000    -4.307000000    -6.496000000
H     2.013000000    -3.895000000    -6.516000000
H     3.172000000    -4.201000000    -5.592000000
O     2.439000000     6.589000000     3.259000000
H     2.680000000     6.802000000     4.160000000
H     3.120000000     5.983000000     2.966000000
O    -2.092000000     5.881000000     3.913000000
H    -1.921000000     6.806000000     4.090000000
H    -1.298000000     5.570000000     3.479000000
O     3.049000000    -6.103000000    -3.048000000
H     3.472000000    -6.885000000    -2.695000000
H     2.214000000    -6.417000000    -3.395000000
O    -0.548000000     4.897000000    -2.615000000
H    -0.510000000     3.944000000    -2.691000000
H    -1.057000000     5.178000000    -3.376000000
O     1.394000000     5.790000000    -0.216000000
H     0.605000000     5.695000000    -0.748000000
H     1.133000000     6.371000000     0.499000000
O     6.114000000    -0.394000000    -3.781000000
H     5.552000000    -0.035000000    -4.468000000
H     5.676000000    -0.154000000    -2.964000000
O    -0.977000000    -5.365000000    -1.568000000
H    -0.024000000    -5.436000000    -1.516000000
H    -1.160000000    -5.289000000    -2.505000000
O    -5.213000000    -3.481000000    -2.967000000
H    -6.096000000    -3.660000000    -3.291000000
H    -5.337000000    -3.261000000    -2.044000000
O     2.558000000     3.330000000     4.970000000
H     1.833000000     3.899000000     4.710000000
H     2.366000000     2.491000000     4.549000000
O    -2.508000000    -4.573000000    -4.035000000
H    -2.237000000    -3.858000000    -4.611000000
H    -3.453000000    -4.459000000    -3.940000000
O     3.373000000     4.523000000    -1.491000000
H     2.912000000     4.355000000    -2.312000000
H     2.679000000     4.599000000    -0.837000000
O    -0.954000000    -1.689000000     4.910000000
H    -1.418000000    -0.856000000     4.996000000
H    -1.516000000    -2.218000000     4.343000000
O    -2.594000000    -4.074000000     0.266000000
H    -1.906000000    -4.455000000    -0.279000000
H    -3.007000000    -3.416000000    -0.293000000
O    -5.062000000    -0.188000000    -1.574000000
H    -5.842000000     0.157000000    -1.140000000
H    -5.175000000    -1.139000000    -1.551000000
O    -4.973000000    -0.132000000     4.230000000
H    -4.918000000    -0.569000000     5.080000000
H    -4.150000000     0.351000000     4.155000000
O     2.053000000     1.556000000    -4.893000000
H     1.725000000     2.127000000    -4.199000000
H     1.272000000     1.121000000    -5.235000000
O    -3.972000000    -6.442000000     0.042000000
H    -3.341000000    -6.972000000     0.529000000
H    -3.685000000    -5.540000000     0.181000000
O     4.443000000     4.776000000     2.602000000
H     4.753000000     3.875000000     2.515000000
H     4.511000000     4.965000000     3.538000000
O     4.613000000     0.509000000    -1.501000000
H     4.633000000     0.121000000    -0.626000000
H     4.320000000     1.409000000    -1.357000000
O     0.133000000     2.032000000    -2.708000000
H     0.791000000     2.005000000    -2.013000000
H    -0.596000000     1.513000000    -2.368000000
O    -2.222000000     0.612000000     4.678000000
H    -2.877000000     0.925000000     5.301000000
H    -1.676000000     1.379000000     4.500000000
O    -6.224000000    -1.491000000     2.103000000
H    -7.084000000    -1.110000000     1.928000000
H    -5.849000000    -0.933000000     2.785000000
O    -6.157000000     2.089000000     1.686000000
H    -6.112000000     1.567000000     0.885000000
H    -5.259000000     2.093000000     2.019000000
O     4.194000000    -0.926000000     1.467000000
H     4.729000000    -1.683000000     1.707000000
H     3.311000000    -1.281000000     1.362000000
O    -0.163000000    -4.846000000     2.997000000
H     0.780000000    -4.991000000     3.067000000
H    -0.380000000    -5.104000000     2.102000000
O     1.839000000    -5.230000000     0.378000000
H     1.591000000    -6.112000000     0.101000000
H     2.780000000    -5.183000000     0.212000000
