144
-2797.57109
O    -2.308000000     3.199000000     5.035000000
H    -3.259000000     3.145000000     4.936000000
H    -1.961000000     2.754000000     4.262000000
O    -0.359000000    -0.233000000    -5.664000000
H    -1.049000000     0.098000000    -5.088000000
H    -0.388000000    -1.183000000    -5.551000000
O     4.654000000     0.509000000     3.831000000
H     3.815000000     0.106000000     3.610000000
H     4.420000000     1.304000000     4.310000000
O    -3.405000000     2.622000000    -1.602000000
H    -3.797000000     1.806000000    -1.292000000
H    -4.152000000     3.172000000    -1.838000000
O     1.792000000    -0.402000000     4.141000000
H     1.245000000     0.336000000     3.871000000
H     2.009000000    -0.218000000     5.055000000
O    -0.580000000     1.481000000     6.679000000
H    -0.991000000     2.018000000     6.001000000
H     0.236000000     1.177000000     6.281000000
O     7.380000000    -0.491000000     0.573000000
H     6.469000000    -0.202000000     0.518000000
H     7.879000000     0.206000000     0.147000000
O     2.970000000    -3.687000000     3.350000000
H     3.114000000    -3.646000000     4.295000000
H     3.597000000    -3.064000000     2.984000000
O     2.116000000     3.871000000     2.109000000
H     2.264000000     4.637000000     2.662000000
H     1.996000000     3.149000000     2.726000000
O    -1.375000000     5.371000000     2.423000000
H    -0.692000000     5.124000000     3.046000000
H    -1.547000000     6.294000000     2.609000000
O    -3.388000000     3.266000000     1.933000000
H    -2.862000000     2.546000000     2.281000000
H    -2.760000000     3.973000000     1.786000000
O     0.199000000     4.922000000     0.340000000
H    -0.322000000     5.288000000     1.055000000
H     1.018000000     4.651000000     0.754000000
O     1.238000000     3.205000000    -5.489000000
H     0.573000000     3.026000000    -4.824000000
H     0.876000000     2.837000000    -6.295000000
O    -5.116000000     2.279000000     6.253000000
H    -5.696000000     2.144000000     7.003000000
H    -4.647000000     1.449000000     6.161000000
O     0.105000000    -2.403000000     3.228000000
H     0.628000000    -1.610000000     3.349000000
H     0.750000000    -3.109000000     3.170000000
O    -4.683000000     0.383000000    -0.828000000
H    -4.875000000     0.799000000     0.012000000
H    -4.581000000    -0.546000000    -0.617000000
O     5.755000000    -1.356000000    -3.570000000
H     5.477000000    -1.818000000    -2.780000000
H     6.213000000    -0.580000000    -3.247000000
O    -5.006000000     1.359000000     1.483000000
H    -4.402000000     2.083000000     1.644000000
H    -5.783000000     1.576000000     1.998000000
O     2.177000000    -4.184000000    -5.771000000
H     2.443000000    -3.513000000    -5.142000000
H     2.757000000    -4.924000000    -5.591000000
O     3.155000000    -3.484000000    -1.094000000
H     2.807000000    -4.194000000    -1.633000000
H     2.538000000    -3.411000000    -0.366000000
O    -1.815000000     5.146000000    -1.523000000
H    -0.933000000     4.938000000    -1.218000000
H    -2.286000000     4.314000000    -1.484000000
O     0.978000000    -3.010000000     0.438000000
H     1.357000000    -2.280000000     0.927000000
H     0.779000000    -2.644000000    -0.424000000
O     2.339000000    -0.721000000    -5.845000000
H     1.409000000    -0.603000000    -6.039000000
H     2.436000000    -0.415000000    -4.943000000
O     3.524000000     2.681000000     0.020000000
H     3.006000000     3.118000000     0.697000000
H     3.102000000     2.929000000    -0.802000000
O     2.506000000    -5.643000000    -2.383000000
H     2.808000000    -5.941000000    -3.241000000
H     2.325000000    -6.449000000    -1.899000000
O    -1.581000000     5.495000000     6.518000000
H    -1.655000000     4.862000000     7.232000000
H    -1.993000000     5.062000000     5.770000000
O    -5.022000000    -1.146000000     3.307000000
H    -5.709000000    -1.611000000     2.830000000
H    -4.962000000    -0.295000000     2.873000000
O     1.447000000     3.563000000     5.214000000
H     0.891000000     3.620000000     5.991000000
H     0.949000000     3.020000000     4.603000000
O     1.212000000     5.997000000     3.844000000
H     0.860000000     5.478000000     4.567000000
H     1.996000000     6.411000000     4.206000000
O    -0.124000000    -6.252000000    -2.672000000
H     0.635000000    -5.670000000    -2.715000000
H    -0.857000000    -5.712000000    -2.968000000
O    -0.311000000    -2.722000000    -5.375000000
H     0.477000000    -3.097000000    -5.767000000
H    -0.801000000    -3.479000000    -5.052000000
O    -0.875000000    -4.687000000     1.109000000
H    -0.136000000    -4.182000000     0.769000000
H    -1.340000000    -4.077000000     1.680000000
O     3.512000000     1.882000000    -4.372000000
H     3.946000000     2.490000000    -3.774000000
H     2.636000000     2.250000000    -4.494000000
O     4.187000000     2.789000000     4.973000000
H     4.244000000     3.601000000     4.469000000
H     3.411000000     2.902000000     5.521000000
O     5.197000000     0.841000000     1.013000000
H     4.636000000     1.498000000     0.600000000
H     5.251000000     1.113000000     1.929000000
O     5.551000000    -2.656000000    -0.774000000
H     5.504000000    -2.187000000     0.060000000
H     4.710000000    -3.108000000    -0.842000000
O     4.954000000    -1.598000000    -6.024000000
H     5.373000000    -1.449000000    -5.177000000
H     4.030000000    -1.398000000    -5.873000000
O    -0.481000000     2.233000000    -2.582000000
H    -1.337000000     2.177000000    -2.158000000
H    -0.044000000     1.414000000    -2.350000000
O    -2.236000000    -0.640000000     4.635000000
H    -3.116000000    -0.614000000     5.012000000
H    -2.133000000     0.212000000     4.210000000
O    -5.056000000    -0.566000000     5.967000000
H    -5.906000000    -0.361000000     6.355000000
H    -5.228000000    -0.613000000     5.026000000
O     5.187000000    -2.246000000     3.077000000
H     5.212000000    -1.356000000     3.428000000
H     6.107000000    -2.507000000     3.023000000
O    -5.077000000    -1.961000000     0.003000000
H    -4.973000000    -2.401000000     0.847000000
H    -5.308000000    -2.662000000    -0.606000000
O     2.167000000    -0.259000000     7.005000000
H     2.369000000     0.635000000     7.282000000
H     1.727000000    -0.650000000     7.759000000
O    -5.049000000     4.900000000    -0.054000000
H    -4.437000000     4.188000000     0.133000000
H    -4.971000000     5.486000000     0.699000000
O    -2.477000000    -2.824000000     2.516000000
H    -1.597000000    -2.505000000     2.717000000
H    -3.057000000    -2.279000000     3.047000000
O    -2.055000000    -4.620000000    -4.146000000
H    -2.305000000    -5.479000000    -4.485000000
H    -2.868000000    -4.115000000    -4.151000000
O     2.033000000     3.613000000    -2.139000000
H     2.328000000     4.123000000    -2.893000000
H     1.148000000     3.332000000    -2.370000000
O    -5.208000000     5.192000000     2.741000000
H    -5.515000000     4.920000000     3.606000000
H    -4.699000000     4.447000000     2.422000000
