144
-2783.17880
O    -6.810000000     5.880000000    -1.079000000
H    -6.128000000     5.548000000    -0.495000000
H    -6.837000000     6.821000000    -0.905000000
O     1.329000000     3.613000000     4.739000000
H     1.585000000     2.732000000     4.469000000
H     2.000000000     3.875000000     5.369000000
O    -2.238000000     4.798000000     0.103000000
H    -1.945000000     4.679000000    -0.800000000
H    -2.748000000     4.012000000     0.295000000
O     7.622000000    -2.291000000    -2.038000000
H     8.231000000    -3.028000000    -2.076000000
H     6.962000000    -2.491000000    -2.702000000
O     0.539000000     5.273000000     2.878000000
H    -0.405000000     5.382000000     2.993000000
H     0.730000000     4.421000000     3.270000000
O    -7.106000000     1.335000000     3.661000000
H    -6.652000000     1.123000000     2.845000000
H    -6.567000000     2.015000000     4.065000000
O    -3.488000000     2.758000000    -2.413000000
H    -3.340000000     2.277000000    -3.227000000
H    -3.904000000     2.122000000    -1.831000000
O    -4.916000000     2.184000000     5.052000000
H    -4.139000000     2.313000000     4.509000000
H    -4.696000000     1.442000000     5.614000000
O    -0.769000000    -5.089000000    -2.040000000
H    -1.145000000    -4.270000000    -2.364000000
H    -0.648000000    -5.624000000    -2.824000000
O    -0.019000000    -3.627000000    -5.247000000
H     0.808000000    -3.715000000    -5.720000000
H    -0.231000000    -2.695000000    -5.307000000
O     4.871000000     3.820000000    -1.388000000
H     4.322000000     3.037000000    -1.425000000
H     4.703000000     4.189000000    -0.521000000
O     0.659000000     1.103000000    -3.727000000
H     0.282000000     0.828000000    -4.562000000
H     1.553000000     0.761000000    -3.743000000
O    -1.415000000     4.493000000    -2.666000000
H    -2.268000000     4.058000000    -2.691000000
H    -1.055000000     4.366000000    -3.544000000
O    -4.454000000     6.268000000     1.140000000
H    -3.715000000     5.786000000     0.768000000
H    -4.525000000     5.943000000     2.037000000
O     4.952000000    -2.481000000     3.922000000
H     5.502000000    -3.006000000     3.341000000
H     5.373000000    -2.550000000     4.779000000
O    -0.523000000    -3.631000000     2.942000000
H    -0.496000000    -4.039000000     2.077000000
H    -1.442000000    -3.684000000     3.203000000
O    -5.336000000     3.562000000     0.659000000
H    -5.719000000     2.981000000     0.001000000
H    -4.461000000     3.205000000     0.814000000
O    -2.402000000     2.877000000     3.066000000
H    -2.694000000     2.421000000     2.276000000
H    -2.582000000     3.800000000     2.890000000
O     2.365000000     1.119000000     4.314000000
H     3.047000000     0.849000000     3.698000000
H     1.629000000     0.536000000     4.127000000
O    -8.453000000     1.749000000    -0.039000000
H    -7.567000000     1.630000000    -0.382000000
H    -8.606000000     0.974000000     0.502000000
O    -2.093000000     1.027000000     5.426000000
H    -2.011000000     1.424000000     4.559000000
H    -1.561000000     1.583000000     5.995000000
O     3.658000000    -2.257000000    -4.824000000
H     3.259000000    -1.422000000    -4.577000000
H     3.133000000    -2.563000000    -5.563000000
O    -3.152000000    -3.063000000     0.802000000
H    -3.776000000    -3.756000000     1.019000000
H    -3.531000000    -2.631000000     0.036000000
O     1.829000000    -6.303000000     0.408000000
H     1.749000000    -6.924000000    -0.316000000
H     1.687000000    -6.832000000     1.194000000
O     2.837000000    -4.876000000    -2.600000000
H     2.136000000    -5.057000000    -1.975000000
H     2.710000000    -3.959000000    -2.844000000
O    -1.010000000    -4.724000000     0.638000000
H    -0.803000000    -5.039000000    -0.242000000
H    -1.719000000    -4.095000000     0.507000000
O     4.587000000    -6.778000000     1.329000000
H     4.315000000    -5.878000000     1.509000000
H     3.938000000    -7.104000000     0.706000000
O     3.081000000    -4.631000000     2.112000000
H     2.452000000    -4.429000000     2.805000000
H     2.578000000    -5.132000000     1.470000000
O     5.706000000    -5.165000000    -1.624000000
H     6.039000000    -4.461000000    -2.181000000
H     4.755000000    -5.117000000    -1.721000000
O    -7.841000000    -1.014000000     1.129000000
H    -7.933000000    -1.861000000     1.565000000
H    -6.909000000    -0.808000000     1.200000000
O    -3.456000000    -1.884000000    -4.961000000
H    -3.304000000    -2.224000000    -5.843000000
H    -4.344000000    -1.530000000    -4.991000000
O     0.828000000     5.493000000     0.125000000
H    -0.072000000     5.611000000    -0.180000000
H     0.737000000     5.219000000     1.038000000
O     5.312000000     0.400000000     2.972000000
H     5.067000000    -0.520000000     3.073000000
H     6.082000000     0.506000000     3.530000000
O    -2.124000000    -2.999000000    -2.904000000
H    -2.677000000    -2.694000000    -3.624000000
H    -2.027000000    -2.234000000    -2.337000000
O    -6.296000000    -1.082000000    -3.190000000
H    -6.498000000    -1.977000000    -3.464000000
H    -6.963000000    -0.545000000    -3.616000000
O     1.602000000     3.447000000    -2.740000000
H     1.340000000     2.638000000    -3.179000000
H     0.843000000     3.688000000    -2.209000000
O    -0.933000000    -0.875000000    -5.677000000
H    -1.288000000    -0.181000000    -6.231000000
H    -1.599000000    -1.006000000    -5.001000000
O    -4.571000000    -1.738000000    -1.278000000
H    -5.238000000    -1.460000000    -1.906000000
H    -4.189000000    -0.921000000    -0.957000000
O    -6.160000000     0.947000000    -1.176000000
H    -5.224000000     0.870000000    -0.995000000
H    -6.347000000     0.229000000    -1.780000000
O     6.652000000     3.265000000     1.716000000
H     7.286000000     2.617000000     1.408000000
H     5.918000000     2.745000000     2.042000000
O    -2.497000000     5.603000000     3.499000000
H    -3.243000000     6.135000000     3.776000000
H    -2.014000000     5.427000000     4.306000000
O    -7.682000000     4.911000000     1.818000000
H    -7.981000000     5.485000000     1.114000000
H    -6.992000000     4.380000000     1.419000000
O    -5.084000000    -0.232000000     1.784000000
H    -4.296000000    -0.421000000     2.293000000
H    -4.757000000     0.171000000     0.979000000
O     3.534000000     0.669000000    -3.568000000
H     3.948000000     1.346000000    -4.103000000
H     4.187000000     0.460000000    -2.900000000
O    -5.359000000    -4.237000000    -2.348000000
H    -4.528000000    -3.762000000    -2.349000000
H    -5.822000000    -3.910000000    -1.577000000
O     2.387000000    -1.783000000     4.068000000
H     2.018000000    -2.643000000     4.269000000
H     3.298000000    -1.963000000     3.832000000
O    -2.646000000    -1.452000000     3.082000000
H    -2.617000000    -1.840000000     2.207000000
H    -1.792000000    -1.032000000     3.186000000
O     0.031000000    -0.541000000     2.964000000
H     0.681000000    -1.213000000     3.169000000
H     0.141000000    -0.380000000     2.027000000
