144
-2788.10458
O    -2.721000000    -4.747000000    -3.419000000
H    -2.466000000    -4.052000000    -4.026000000
H    -3.606000000    -4.510000000    -3.141000000
O     2.673000000     0.398000000     4.240000000
H     2.726000000     0.012000000     3.365000000
H     1.746000000     0.343000000     4.470000000
O    -5.088000000     0.558000000    -0.417000000
H    -4.964000000     0.235000000     0.476000000
H    -5.583000000     1.371000000    -0.310000000
O     2.088000000    -2.668000000     2.519000000
H     2.006000000    -3.245000000     1.760000000
H     2.706000000    -1.993000000     2.241000000
O    -0.239000000    -0.912000000     6.296000000
H    -0.308000000    -0.568000000     5.406000000
H    -0.711000000    -1.744000000     6.269000000
O     2.363000000     5.617000000    -2.165000000
H     2.103000000     5.651000000    -3.085000000
H     1.685000000     6.112000000    -1.705000000
O    -0.621000000     2.592000000     6.417000000
H    -0.787000000     2.032000000     7.175000000
H     0.254000000     2.950000000     6.571000000
O    -5.851000000    -3.732000000     1.489000000
H    -6.214000000    -2.871000000     1.698000000
H    -5.395000000    -3.999000000     2.287000000
O     3.734000000    -0.512000000    -5.530000000
H     3.255000000     0.264000000    -5.239000000
H     3.282000000    -1.244000000    -5.110000000
O    -0.297000000    -3.705000000     4.851000000
H    -0.618000000    -2.913000000     4.420000000
H     0.553000000    -3.872000000     4.444000000
O     0.317000000    -6.531000000     2.109000000
H    -0.046000000    -5.805000000     1.601000000
H     0.104000000    -6.318000000     3.017000000
O    -1.521000000     2.609000000    -0.052000000
H    -0.682000000     2.166000000     0.080000000
H    -2.037000000     1.994000000    -0.573000000
O     4.651000000     1.770000000     0.697000000
H     4.637000000     2.052000000     1.612000000
H     4.691000000     2.585000000     0.196000000
O    -3.427000000     3.140000000     2.305000000
H    -2.483000000     3.036000000     2.185000000
H    -3.721000000     2.294000000     2.640000000
O     5.035000000     3.729000000     2.921000000
H     4.236000000     4.172000000     3.208000000
H     5.549000000     4.415000000     2.496000000
O    -1.580000000    -3.200000000    -5.526000000
H    -1.751000000    -3.253000000    -6.466000000
H    -1.694000000    -2.273000000    -5.314000000
O     1.382000000    -4.323000000     0.068000000
H     1.899000000    -4.896000000    -0.499000000
H     0.559000000    -4.198000000    -0.406000000
O     5.600000000     1.228000000    -2.618000000
H     4.844000000     1.742000000    -2.333000000
H     5.664000000     1.396000000    -3.558000000
O    -1.265000000     3.451000000    -7.057000000
H    -1.763000000     2.736000000    -7.453000000
H    -1.904000000     4.155000000    -6.946000000
O     3.846000000     3.070000000    -2.150000000
H     4.438000000     3.490000000    -2.774000000
H     3.073000000     3.635000000    -2.135000000
O    -4.397000000     3.144000000    -5.354000000
H    -4.880000000     2.883000000    -6.138000000
H    -4.389000000     2.360000000    -4.805000000
O     3.100000000    -3.307000000    -4.719000000
H     3.582000000    -2.926000000    -3.985000000
H     3.404000000    -4.214000000    -4.760000000
O    -1.541000000    -4.265000000     1.524000000
H    -1.296000000    -3.965000000     0.648000000
H    -2.001000000    -3.520000000     1.912000000
O     0.774000000    -4.628000000    -5.159000000
H    -0.021000000    -4.127000000    -4.979000000
H     1.486000000    -4.065000000    -4.854000000
O     2.655000000     1.767000000    -5.196000000
H     3.487000000     2.233000000    -5.280000000
H     1.989000000     2.453000000    -5.259000000
O    -4.805000000     0.010000000     2.282000000
H    -4.556000000    -0.865000000     2.578000000
H    -5.143000000     0.442000000     3.066000000
O     2.410000000    -4.485000000     4.872000000
H     2.528000000    -5.179000000     5.519000000
H     2.234000000    -3.700000000     5.391000000
O    -1.039000000     2.305000000     3.930000000
H    -0.903000000     2.590000000     4.834000000
H    -0.588000000     1.463000000     3.874000000
O    -0.278000000     6.423000000     0.581000000
H    -0.278000000     5.679000000     1.184000000
H     0.627000000     6.735000000     0.587000000
O     2.442000000     4.767000000     2.960000000
H     1.528000000     4.484000000     2.942000000
H     2.401000000     5.695000000     3.194000000
O     4.942000000     1.789000000     5.100000000
H     4.972000000     2.565000000     4.541000000
H     4.134000000     1.342000000     4.847000000
O    -1.211000000    -4.659000000    -1.214000000
H    -1.604000000    -5.348000000    -0.678000000
H    -1.822000000    -4.546000000    -1.943000000
O    -5.228000000    -4.169000000     5.802000000
H    -5.026000000    -3.290000000     5.482000000
H    -5.529000000    -4.642000000     5.026000000
O    -2.491000000    -4.824000000     6.049000000
H    -1.927000000    -4.300000000     5.480000000
H    -3.343000000    -4.390000000     6.009000000
O    -1.631000000    -0.391000000    -5.243000000
H    -1.145000000     0.006000000    -5.966000000
H    -2.138000000     0.330000000    -4.870000000
O     0.659000000     3.786000000    -5.164000000
H     0.372000000     4.163000000    -4.333000000
H    -0.145000000     3.688000000    -5.673000000
O     1.890000000     0.831000000     6.944000000
H     1.058000000     0.374000000     6.822000000
H     2.536000000     0.272000000     6.513000000
O     3.790000000    -0.900000000     1.550000000
H     4.595000000    -1.409000000     1.461000000
H     4.058000000     0.004000000     1.387000000
O     2.880000000    -2.001000000    -0.808000000
H     3.058000000    -1.543000000     0.014000000
H     2.254000000    -2.685000000    -0.570000000
O    -3.130000000     0.680000000     4.345000000
H    -2.525000000     1.399000000     4.162000000
H    -2.626000000    -0.112000000     4.160000000
O    -2.910000000    -6.310000000     2.804000000
H    -2.324000000    -5.614000000     2.507000000
H    -3.355000000    -6.604000000     2.009000000
O    -4.201000000     1.361000000     6.574000000
H    -3.825000000     1.139000000     5.722000000
H    -5.075000000     1.693000000     6.370000000
O     4.561000000    -1.780000000    -3.027000000
H     3.875000000    -1.631000000    -2.377000000
H     4.792000000    -0.905000000    -3.338000000
O    -6.180000000    -1.481000000    -1.869000000
H    -5.722000000    -0.827000000    -1.340000000
H    -6.997000000    -1.641000000    -1.397000000
O    -4.794000000     0.859000000    -3.357000000
H    -4.664000000     0.603000000    -2.444000000
H    -5.333000000     0.161000000    -3.727000000
O     2.207000000    -2.286000000     6.466000000
H     1.638000000    -1.554000000     6.228000000
H     2.055000000    -2.412000000     7.403000000
O    -0.328000000     4.734000000     2.767000000
H    -0.497000000     5.377000000     3.456000000
H    -0.616000000     3.901000000     3.142000000
O    -3.830000000    -2.364000000     4.400000000
H    -3.859000000    -1.833000000     5.196000000
H    -3.004000000    -2.124000000     3.981000000
