144
-2811.56340
O    -0.944000000     4.078000000    -2.962000000
H    -0.613000000     4.952000000    -2.755000000
H    -1.773000000     4.017000000    -2.486000000
O     0.101000000     4.670000000    -0.094000000
H     0.838000000     4.500000000     0.493000000
H     0.504000000     5.017000000    -0.890000000
O    -1.229000000    -2.544000000    -3.342000000
H    -1.705000000    -2.250000000    -4.118000000
H    -1.907000000    -2.884000000    -2.759000000
O    -0.968000000    -3.199000000     4.119000000
H    -0.534000000    -2.615000000     4.742000000
H    -0.811000000    -4.077000000     4.464000000
O     4.680000000     2.078000000     1.312000000
H     5.400000000     2.247000000     1.921000000
H     4.078000000     1.520000000     1.804000000
O    -6.425000000    -0.447000000     0.062000000
H    -5.721000000    -1.089000000     0.155000000
H    -7.040000000    -0.664000000     0.762000000
O     0.594000000    -3.580000000    -0.514000000
H     0.394000000    -2.665000000    -0.314000000
H     0.359000000    -3.680000000    -1.437000000
O     2.639000000    -1.294000000     7.240000000
H     2.390000000    -0.401000000     7.476000000
H     3.121000000    -1.200000000     6.418000000
O     6.051000000    -0.368000000     2.892000000
H     5.420000000    -0.957000000     3.305000000
H     5.525000000     0.173000000     2.303000000
O     1.258000000     6.436000000    -2.157000000
H     1.238000000     7.384000000    -2.028000000
H     2.155000000     6.251000000    -2.434000000
O    -3.320000000    -3.475000000    -1.651000000
H    -3.811000000    -2.866000000    -1.100000000
H    -3.675000000    -4.337000000    -1.431000000
O    -7.441000000     2.387000000    -0.625000000
H    -7.054000000     1.553000000    -0.358000000
H    -7.026000000     2.586000000    -1.464000000
O     8.207000000     1.204000000     3.671000000
H     7.461000000     0.711000000     3.328000000
H     8.839000000     0.534000000     3.929000000
O     2.434000000    -4.181000000     6.549000000
H     2.963000000    -4.361000000     5.773000000
H     2.458000000    -3.228000000     6.641000000
O    -1.603000000     2.902000000    -6.354000000
H    -1.519000000     3.829000000    -6.577000000
H    -1.790000000     2.897000000    -5.416000000
O     2.774000000    -4.285000000     1.007000000
H     3.107000000    -3.391000000     1.086000000
H     1.835000000    -4.178000000     0.855000000
O    -0.446000000    -6.262000000     0.459000000
H    -0.332000000    -5.324000000     0.304000000
H    -0.958000000    -6.311000000     1.266000000
O    -4.739000000    -2.534000000     0.457000000
H    -5.088000000    -3.425000000     0.439000000
H    -4.086000000    -2.547000000     1.157000000
O    -3.422000000     4.399000000    -1.399000000
H    -4.314000000     4.717000000    -1.262000000
H    -3.173000000     4.014000000    -0.558000000
O     5.429000000     3.683000000    -0.738000000
H     6.329000000     3.369000000    -0.825000000
H     5.087000000     3.222000000     0.028000000
O     3.320000000    -2.240000000    -1.578000000
H     2.874000000    -1.612000000    -2.147000000
H     3.473000000    -1.759000000    -0.765000000
O     4.510000000     3.794000000     3.997000000
H     4.038000000     4.614000000     4.143000000
H     5.375000000     4.066000000     3.692000000
O    -1.770000000     6.543000000    -1.654000000
H    -2.287000000     5.744000000    -1.544000000
H    -1.140000000     6.521000000    -0.933000000
O    -4.365000000     1.884000000     4.350000000
H    -4.629000000     1.223000000     4.989000000
H    -3.889000000     1.393000000     3.680000000
O     3.140000000     5.140000000     0.677000000
H     3.784000000     4.875000000     0.019000000
H     3.592000000     5.799000000     1.203000000
O     6.293000000     0.168000000     6.293000000
H     5.899000000    -0.578000000     6.745000000
H     5.548000000     0.681000000     5.981000000
O     1.466000000    -0.719000000    -2.882000000
H     0.701000000    -0.316000000    -2.472000000
H     1.119000000    -1.489000000    -3.332000000
O    -6.223000000    -0.230000000    -2.856000000
H    -6.041000000    -0.388000000    -1.930000000
H    -7.058000000    -0.670000000    -3.015000000
O     4.071000000     1.439000000     5.057000000
H     3.953000000     2.227000000     4.527000000
H     3.831000000     0.719000000     4.473000000
O    -0.420000000    -4.604000000    -4.882000000
H     0.397000000    -4.790000000    -4.420000000
H    -0.816000000    -3.885000000    -4.390000000
O    -3.381000000     5.025000000    -4.417000000
H    -4.155000000     4.550000000    -4.719000000
H    -3.420000000     4.963000000    -3.463000000
O    -2.873000000    -1.709000000    -5.404000000
H    -3.507000000    -1.057000000    -5.105000000
H    -3.243000000    -2.045000000    -6.220000000
O     1.084000000     3.666000000    -5.210000000
H     0.507000000     2.913000000    -5.340000000
H     0.831000000     4.017000000    -4.356000000
O    -0.298000000    -1.340000000     6.047000000
H    -0.867000000    -0.581000000     6.174000000
H     0.369000000    -1.039000000     5.430000000
O    -2.971000000     0.378000000     2.702000000
H    -3.382000000     0.147000000     1.869000000
H    -2.217000000     0.914000000     2.457000000
O     1.340000000     4.428000000     2.624000000
H     2.155000000     4.461000000     2.123000000
H     1.595000000     4.676000000     3.513000000
O     2.228000000    -3.841000000     3.721000000
H     2.344000000    -4.528000000     3.065000000
H     2.398000000    -3.026000000     3.248000000
O     0.868000000     0.473000000     4.337000000
H     0.389000000     0.935000000     3.650000000
H     1.698000000     0.228000000     3.928000000
O     5.468000000     0.395000000    -1.160000000
H     5.115000000     1.027000000    -0.535000000
H     4.970000000     0.548000000    -1.963000000
O     2.912000000     1.768000000    -3.390000000
H     3.725000000     1.577000000    -3.856000000
H     2.467000000     0.923000000    -3.327000000
O    -2.800000000     3.424000000     0.945000000
H    -1.858000000     3.253000000     0.949000000
H    -3.005000000     3.657000000     1.850000000
O    -0.459000000     2.003000000     2.532000000
H    -0.088000000     1.674000000     1.713000000
H    -0.132000000     2.900000000     2.599000000
O     4.018000000    -1.572000000     4.477000000
H     3.970000000    -2.470000000     4.806000000
H     3.715000000    -1.633000000     3.571000000
O     3.672000000     4.382000000    -2.939000000
H     3.262000000     3.544000000    -3.156000000
H     4.491000000     4.143000000    -2.506000000
O    -4.822000000     0.404000000    -5.042000000
H    -5.503000000     0.318000000    -4.374000000
H    -4.900000000     1.307000000    -5.349000000
O     1.690000000     1.329000000     7.126000000
H     0.837000000     0.932000000     6.952000000
H     2.026000000     1.564000000     6.260000000
O    -6.001000000     4.675000000     0.299000000
H    -5.915000000     3.983000000     0.956000000
H    -6.345000000     4.229000000    -0.475000000
O    -3.248000000    -2.585000000     2.781000000
H    -3.166000000    -1.638000000     2.886000000
H    -2.517000000    -2.946000000     3.282000000
