144
-2815.03494
O     2.026000000     2.334000000     4.507000000
H     2.650000000     1.880000000     3.941000000
H     2.054000000     1.849000000     5.332000000
O     2.620000000     4.424000000     2.649000000
H     1.994000000     4.213000000     1.956000000
H     2.352000000     3.877000000     3.388000000
O    -4.461000000     3.773000000    -0.761000000
H    -5.139000000     3.275000000    -1.218000000
H    -3.923000000     3.108000000    -0.333000000
O     5.365000000    -2.665000000    -1.372000000
H     5.962000000    -3.304000000    -1.759000000
H     4.735000000    -2.474000000    -2.067000000
O    -1.197000000     5.608000000     4.041000000
H    -1.832000000     6.319000000     4.133000000
H    -1.669000000     4.925000000     3.565000000
O    -6.333000000     2.376000000    -2.189000000
H    -5.846000000     2.816000000    -2.886000000
H    -5.900000000     1.528000000    -2.093000000
O    -6.419000000     0.713000000     3.916000000
H    -6.206000000     1.110000000     3.072000000
H    -5.661000000     0.167000000     4.123000000
O     5.932000000    -0.949000000     1.991000000
H     6.479000000    -1.196000000     1.246000000
H     6.458000000    -1.172000000     2.759000000
O    -0.546000000    -3.704000000    -2.806000000
H     0.142000000    -4.319000000    -2.551000000
H    -1.251000000    -3.861000000    -2.178000000
O     2.974000000     2.997000000    -0.744000000
H     2.325000000     2.348000000    -1.013000000
H     2.633000000     3.828000000    -1.074000000
O     1.542000000    -0.716000000    -3.353000000
H     0.899000000    -1.111000000    -2.765000000
H     1.584000000    -1.314000000    -4.100000000
O     0.259000000     5.143000000     1.529000000
H     0.684000000     5.999000000     1.476000000
H    -0.395000000     5.243000000     2.221000000
O    -2.955000000     4.457000000    -2.899000000
H    -3.005000000     4.425000000    -1.943000000
H    -2.733000000     5.366000000    -3.096000000
O    -0.477000000     2.681000000     5.863000000
H    -0.395000000     3.438000000     6.444000000
H     0.336000000     2.679000000     5.358000000
O    -5.313000000     5.939000000     0.560000000
H    -4.960000000     5.151000000     0.147000000
H    -4.543000000     6.401000000     0.891000000
O    -5.992000000     1.376000000     1.174000000
H    -6.312000000     1.078000000     0.322000000
H    -5.042000000     1.433000000     1.066000000
O    -2.649000000     4.086000000     2.289000000
H    -2.856000000     3.309000000     1.768000000
H    -3.497000000     4.502000000     2.446000000
O     6.948000000     0.429000000    -1.639000000
H     6.180000000    -0.037000000    -1.970000000
H     7.234000000     0.972000000    -2.374000000
O    -2.601000000     1.822000000     4.050000000
H    -2.423000000     1.831000000     3.110000000
H    -1.782000000     2.111000000     4.452000000
O    -5.189000000    -4.709000000     0.676000000
H    -4.565000000    -4.419000000     0.011000000
H    -5.123000000    -4.052000000     1.369000000
O    -0.705000000     2.482000000    -3.677000000
H    -0.809000000     1.943000000    -4.460000000
H    -1.427000000     3.109000000    -3.720000000
O     2.181000000    -4.701000000    -2.130000000
H     2.605000000    -5.515000000    -2.402000000
H     2.507000000    -4.044000000    -2.746000000
O    -1.030000000    -5.103000000     0.303000000
H    -1.577000000    -4.525000000    -0.230000000
H    -1.654000000    -5.621000000     0.811000000
O    -3.728000000     1.756000000    -2.912000000
H    -3.067000000     1.085000000    -2.738000000
H    -3.243000000     2.581000000    -2.888000000
O     3.673000000    -5.719000000     1.060000000
H     2.854000000    -5.238000000     0.939000000
H     4.333000000    -5.039000000     1.198000000
O    -4.043000000     3.398000000     5.736000000
H    -4.543000000     3.894000000     5.087000000
H    -3.789000000     2.596000000     5.281000000
O     1.507000000    -4.215000000     0.515000000
H     1.648000000    -4.490000000    -0.391000000
H     0.558000000    -4.109000000     0.588000000
O     5.396000000    -3.606000000     1.259000000
H     5.381000000    -3.301000000     0.352000000
H     5.350000000    -2.806000000     1.782000000
O    -7.579000000    -2.530000000     1.519000000
H    -7.117000000    -2.713000000     0.701000000
H    -7.047000000    -1.860000000     1.949000000
O    -3.308000000    -0.901000000    -4.421000000
H    -3.818000000    -1.167000000    -3.656000000
H    -3.934000000    -0.918000000    -5.145000000
O     4.492000000     1.279000000    -3.311000000
H     3.848000000     0.586000000    -3.458000000
H     3.998000000     1.977000000    -2.881000000
O    -2.303000000     5.785000000    -0.291000000
H    -2.523000000     6.547000000     0.246000000
H    -2.101000000     5.097000000     0.342000000
O     3.556000000     0.501000000     2.678000000
H     4.486000000     0.294000000     2.584000000
H     3.273000000     0.736000000     1.794000000
O    -2.862000000    -4.032000000    -1.347000000
H    -3.153000000    -3.198000000    -1.716000000
H    -3.002000000    -4.667000000    -2.049000000
O     1.677000000     1.779000000    -2.744000000
H     0.772000000     1.976000000    -2.985000000
H     1.785000000     0.852000000    -2.960000000
O    -1.007000000    -2.260000000    -5.358000000
H    -0.743000000    -2.808000000    -4.619000000
H    -1.646000000    -1.651000000    -4.988000000
O    -4.296000000    -1.504000000    -1.845000000
H    -5.051000000    -2.059000000    -1.652000000
H    -4.054000000    -1.125000000    -1.000000000
O    -7.468000000    -0.856000000    -1.927000000
H    -7.127000000    -0.768000000    -2.817000000
H    -7.401000000    -1.792000000    -1.737000000
O     5.667000000     2.217000000    -0.009000000
H     5.831000000     1.448000000    -0.556000000
H     4.890000000     2.623000000    -0.392000000
O    -5.509000000     4.865000000     3.661000000
H    -6.168000000     4.643000000     3.003000000
H    -5.944000000     5.497000000     4.232000000
O    -7.651000000     3.845000000     1.601000000
H    -7.920000000     4.022000000     0.700000000
H    -7.181000000     3.013000000     1.552000000
O     4.568000000     5.640000000     0.301000000
H     3.785000000     5.154000000     0.044000000
H     4.797000000     5.290000000     1.161000000
O    -4.816000000    -2.080000000     1.884000000
H    -4.043000000    -2.262000000     2.419000000
H    -4.518000000    -1.429000000     1.248000000
O     3.973000000    -2.604000000    -3.757000000
H     4.056000000    -1.943000000    -4.444000000
H     3.918000000    -3.435000000    -4.230000000
O     3.441000000    -2.116000000     3.634000000
H     4.362000000    -2.273000000     3.844000000
H     3.383000000    -1.170000000     3.503000000
O     5.762000000     2.466000000     3.327000000
H     4.857000000     2.645000000     3.071000000
H     5.688000000     2.002000000     4.161000000
O    -2.608000000    -2.820000000     3.324000000
H    -2.627000000    -3.678000000     3.749000000
H    -1.677000000    -2.637000000     3.196000000
O     0.108000000    -2.498000000     2.799000000
H     1.014000000    -2.660000000     3.060000000
H     0.173000000    -1.852000000     2.096000000
