144
-2825.70964
O    -1.092000000    -6.866000000     1.301000000
H    -1.107000000    -7.132000000     2.220000000
H    -1.562000000    -6.033000000     1.286000000
O     5.347000000    -2.413000000     3.429000000
H     5.645000000    -3.211000000     2.993000000
H     4.409000000    -2.376000000     3.246000000
O     1.077000000     2.959000000     4.344000000
H     0.655000000     3.805000000     4.493000000
H     1.011000000     2.507000000     5.185000000
O     4.656000000    -6.018000000     2.242000000
H     4.186000000    -5.898000000     1.417000000
H     5.231000000    -5.255000000     2.304000000
O    -3.663000000    -5.163000000    -0.473000000
H    -3.236000000    -4.685000000     0.238000000
H    -4.599000000    -5.030000000    -0.324000000
O     4.715000000    -2.150000000    -0.455000000
H     3.892000000    -2.535000000    -0.154000000
H     4.610000000    -2.070000000    -1.403000000
O     1.955000000    -7.950000000    -1.885000000
H     2.420000000    -8.707000000    -2.242000000
H     1.805000000    -8.174000000    -0.966000000
O     2.795000000    -1.862000000    -2.694000000
H     2.261000000    -1.993000000    -3.477000000
H     2.738000000    -0.922000000    -2.519000000
O    -2.179000000    -1.274000000     3.405000000
H    -2.496000000    -1.364000000     4.304000000
H    -1.462000000    -0.643000000     3.466000000
O     5.375000000     0.722000000    -2.013000000
H     4.541000000     0.850000000    -2.464000000
H     5.490000000     1.515000000    -1.491000000
O     6.953000000    -3.405000000    -1.132000000
H     6.137000000    -3.013000000    -0.822000000
H     7.435000000    -2.676000000    -1.524000000
O    -3.850000000     3.416000000    -2.203000000
H    -3.383000000     3.853000000    -1.490000000
H    -4.722000000     3.809000000    -2.195000000
O    -2.793000000     6.391000000     3.145000000
H    -3.251000000     5.665000000     2.720000000
H    -2.279000000     5.976000000     3.838000000
O    -0.649000000    -4.227000000     2.239000000
H    -0.126000000    -4.241000000     1.438000000
H    -1.279000000    -3.520000000     2.101000000
O    -1.188000000     4.644000000    -3.327000000
H    -1.187000000     4.571000000    -4.281000000
H    -1.977000000     4.178000000    -3.052000000
O     0.886000000    -4.109000000     4.658000000
H     1.585000000    -3.536000000     4.342000000
H     0.194000000    -4.026000000     4.002000000
O     3.497000000    -5.220000000    -0.093000000
H     3.033000000    -4.420000000     0.154000000
H     3.545000000    -5.183000000    -1.048000000
O    -0.085000000     7.251000000    -2.454000000
H    -0.601000000     6.481000000    -2.693000000
H     0.053000000     7.163000000    -1.511000000
O    -2.702000000     5.108000000     0.042000000
H    -1.756000000     4.968000000     0.080000000
H    -3.013000000     4.879000000     0.918000000
O    -1.873000000    -3.705000000    -1.918000000
H    -1.216000000    -3.696000000    -1.221000000
H    -2.596000000    -4.218000000    -1.559000000
O     2.725000000     1.222000000    -2.735000000
H     2.424000000     1.546000000    -3.584000000
H     2.356000000     1.837000000    -2.100000000
O    -0.393000000     1.159000000    -4.402000000
H     0.516000000     1.324000000    -4.653000000
H    -0.379000000     0.284000000    -4.014000000
O     1.727000000    -2.688000000    -5.068000000
H     0.945000000    -3.184000000    -4.827000000
H     2.316000000    -3.339000000    -5.450000000
O     2.898000000     4.016000000     2.539000000
H     2.288000000     3.472000000     3.037000000
H     2.887000000     3.643000000     1.657000000
O    -3.267000000    -3.218000000     1.484000000
H    -2.986000000    -2.754000000     2.273000000
H    -4.221000000    -3.133000000     1.484000000
O     3.666000000     0.330000000     2.382000000
H     4.346000000     0.261000000     1.712000000
H     4.140000000     0.566000000     3.180000000
O    -3.658000000    -1.698000000    -3.559000000
H    -3.379000000    -0.805000000    -3.361000000
H    -3.077000000    -2.252000000    -3.038000000
O    -0.476000000    -1.111000000    -3.143000000
H    -0.101000000    -0.999000000    -2.270000000
H    -0.459000000    -2.056000000    -3.292000000
O     0.377000000     6.375000000     0.307000000
H    -0.328000000     6.849000000     0.748000000
H     1.167000000     6.873000000     0.516000000
O     5.165000000     2.750000000    -0.349000000
H     5.476000000     2.717000000     0.555000000
H     4.242000000     2.993000000    -0.276000000
O     1.234000000     3.534000000    -2.576000000
H     0.313000000     3.791000000    -2.603000000
H     1.424000000     3.229000000    -3.463000000
O     0.542000000    -5.761000000    -2.449000000
H     0.670000000    -5.103000000    -1.767000000
H     1.194000000    -6.435000000    -2.257000000
O    -1.357000000    -7.497000000    -3.113000000
H    -0.801000000    -6.754000000    -2.880000000
H    -1.965000000    -7.580000000    -2.378000000
O     1.695000000    -7.049000000     0.924000000
H     0.820000000    -6.821000000     0.608000000
H     2.274000000    -6.410000000     0.508000000
O     3.541000000    -4.500000000    -2.710000000
H     3.846000000    -4.648000000    -3.606000000
H     2.922000000    -3.774000000    -2.785000000
O     1.676000000    -6.259000000    -4.715000000
H     1.428000000    -5.972000000    -3.837000000
H     0.852000000    -6.276000000    -5.203000000
O    -6.740000000     1.391000000    -1.669000000
H    -6.379000000     2.048000000    -2.264000000
H    -6.957000000     1.881000000    -0.875000000
O    -4.900000000    -0.724000000    -0.659000000
H    -4.152000000    -0.480000000    -0.114000000
H    -4.876000000    -0.105000000    -1.389000000
O     6.289000000    -0.123000000     0.606000000
H     6.760000000     0.201000000    -0.163000000
H     5.867000000    -0.928000000     0.306000000
O    -1.114000000    -3.934000000    -4.751000000
H    -1.164000000    -4.794000000    -5.168000000
H    -1.596000000    -4.037000000    -3.930000000
O    -3.131000000     7.831000000    -1.020000000
H    -2.511000000     8.067000000    -0.330000000
H    -3.055000000     6.879000000    -1.095000000
O    -3.891000000     1.489000000     2.786000000
H    -4.027000000     1.234000000     3.698000000
H    -3.403000000     0.760000000     2.403000000
O     2.685000000    -2.529000000     3.015000000
H     2.638000000    -2.879000000     2.125000000
H     2.503000000    -1.595000000     2.915000000
O     2.463000000     4.020000000    -0.364000000
H     2.177000000     3.741000000    -1.234000000
H     1.877000000     4.742000000    -0.140000000
O    -3.810000000     4.082000000     2.261000000
H    -3.572000000     3.162000000     2.382000000
H    -4.723000000     4.133000000     2.546000000
O     0.074000000     0.724000000     3.032000000
H     0.167000000     1.653000000     3.241000000
H     0.227000000     0.674000000     2.088000000
O    -3.188000000     0.901000000    -3.033000000
H    -2.315000000     1.067000000    -3.390000000
H    -3.439000000     1.727000000    -2.619000000
O    -6.047000000    -2.221000000     1.290000000
H    -5.681000000    -1.602000000     0.658000000
H    -6.992000000    -2.070000000     1.254000000
