144
-2823.87300
O    -1.409000000    -4.334000000    -1.894000000
H    -2.230000000    -3.884000000    -2.093000000
H    -1.459000000    -4.522000000    -0.957000000
O     0.466000000     3.720000000     1.662000000
H     0.338000000     4.374000000     0.975000000
H     0.290000000     4.190000000     2.477000000
O     1.844000000    -6.059000000     5.628000000
H     2.680000000    -5.766000000     5.990000000
H     1.355000000    -5.251000000     5.472000000
O     4.614000000    -0.112000000     0.440000000
H     4.414000000    -0.484000000    -0.419000000
H     5.513000000    -0.391000000     0.618000000
O     0.905000000    -0.828000000    -4.584000000
H     0.834000000    -1.188000000    -3.700000000
H     1.727000000    -0.336000000    -4.577000000
O    -4.681000000     1.369000000    -5.329000000
H    -3.872000000     1.850000000    -5.152000000
H    -4.694000000     0.672000000    -4.674000000
O    -0.776000000    -2.352000000     6.453000000
H    -1.347000000    -2.101000000     7.179000000
H     0.057000000    -2.575000000     6.869000000
O     0.208000000     6.265000000    -2.758000000
H     0.379000000     6.868000000    -3.481000000
H    -0.272000000     5.540000000    -3.159000000
O    -5.900000000    -0.223000000     0.702000000
H    -6.695000000    -0.125000000     1.227000000
H    -5.199000000     0.102000000     1.267000000
O     4.638000000    -4.169000000    -1.630000000
H     4.706000000    -4.375000000    -2.562000000
H     4.318000000    -3.267000000    -1.607000000
O    -5.008000000     2.399000000    -0.766000000
H    -5.598000000     1.723000000    -0.432000000
H    -4.617000000     2.784000000     0.019000000
O     0.148000000     0.920000000     5.410000000
H    -0.205000000     0.136000000     4.988000000
H     0.951000000     1.111000000     4.927000000
O    -4.180000000    -4.516000000     0.568000000
H    -4.263000000    -4.314000000    -0.364000000
H    -3.239000000    -4.480000000     0.737000000
O    -3.472000000     4.889000000    -3.103000000
H    -3.409000000     4.761000000    -2.156000000
H    -4.060000000     4.195000000    -3.400000000
O     2.181000000     1.242000000     3.380000000
H     1.526000000     1.841000000     3.022000000
H     3.018000000     1.587000000     3.067000000
O    -5.189000000     1.385000000     4.376000000
H    -4.700000000     1.468000000     5.195000000
H    -4.742000000     0.684000000     3.901000000
O    -0.073000000    -4.235000000     4.890000000
H    -0.244000000    -3.654000000     4.149000000
H    -0.216000000    -3.687000000     5.662000000
O    -1.491000000     5.672000000    -5.154000000
H    -1.968000000     5.151000000    -4.508000000
H    -2.152000000     5.914000000    -5.802000000
O     4.454000000    -2.907000000     5.466000000
H     3.727000000    -2.356000000     5.179000000
H     4.318000000    -3.011000000     6.408000000
O     4.216000000     2.218000000     1.769000000
H     4.388000000     1.401000000     1.300000000
H     3.855000000     2.804000000     1.104000000
O     5.818000000    -3.690000000     1.086000000
H     5.207000000    -3.172000000     0.563000000
H     5.284000000    -4.045000000     1.797000000
O    -1.879000000     2.114000000    -5.527000000
H    -2.087000000     2.449000000    -6.399000000
H    -1.049000000     2.535000000    -5.301000000
O    -2.776000000     4.799000000     0.085000000
H    -1.848000000     4.983000000     0.235000000
H    -3.114000000     4.554000000     0.946000000
O    -3.823000000    -5.290000000     3.656000000
H    -3.662000000    -4.355000000     3.782000000
H    -3.829000000    -5.405000000     2.705000000
O    -6.521000000    -2.718000000     3.205000000
H    -5.591000000    -2.919000000     3.310000000
H    -6.546000000    -1.774000000     3.050000000
O    -1.524000000    -4.780000000     1.024000000
H    -1.005000000    -5.559000000     1.225000000
H    -1.171000000    -4.102000000     1.600000000
O     0.822000000     2.780000000    -5.511000000
H     1.347000000     2.478000000    -6.252000000
H     1.465000000     3.019000000    -4.843000000
O    -0.195000000    -3.435000000    -5.412000000
H    -1.082000000    -3.199000000    -5.139000000
H     0.325000000    -2.651000000    -5.240000000
O     3.010000000     3.737000000    -0.525000000
H     2.317000000     3.495000000     0.090000000
H     3.092000000     4.686000000    -0.433000000
O    -2.968000000    -2.429000000     3.659000000
H    -2.083000000    -2.583000000     3.330000000
H    -2.844000000    -2.193000000     4.579000000
O    -1.834000000    -0.497000000    -5.267000000
H    -1.977000000     0.443000000    -5.385000000
H    -0.882000000    -0.593000000    -5.239000000
O     2.976000000     0.404000000     7.136000000
H     3.367000000     1.186000000     6.747000000
H     2.547000000    -0.039000000     6.405000000
O    -5.979000000    -1.453000000    -1.637000000
H    -5.430000000    -0.738000000    -1.959000000
H    -6.016000000    -1.318000000    -0.690000000
O     2.729000000     3.031000000    -3.144000000
H     2.748000000     3.149000000    -2.194000000
H     3.418000000     3.609000000    -3.471000000
O     6.238000000     4.036000000    -0.814000000
H     6.655000000     4.894000000    -0.736000000
H     5.404000000     4.214000000    -1.249000000
O     1.144000000    -6.665000000     1.011000000
H     1.881000000    -6.695000000     1.621000000
H     1.534000000    -6.406000000     0.176000000
O    -4.110000000     0.627000000    -2.636000000
H    -3.158000000     0.684000000    -2.725000000
H    -4.339000000     1.353000000    -2.055000000
O     3.520000000    -1.769000000    -1.420000000
H     2.624000000    -1.665000000    -1.099000000
H     3.503000000    -1.399000000    -2.303000000
O     3.611000000    -3.993000000     3.069000000
H     2.845000000    -3.431000000     2.949000000
H     3.967000000    -3.734000000     3.919000000
O    -1.802000000    -6.615000000     4.765000000
H    -2.601000000    -6.214000000     4.423000000
H    -1.142000000    -5.925000000     4.699000000
O    -4.396000000    -3.739000000    -1.943000000
H    -4.874000000    -2.958000000    -1.664000000
H    -4.689000000    -3.892000000    -2.841000000
O     3.142000000     0.150000000    -3.326000000
H     3.062000000     1.103000000    -3.287000000
H     3.843000000    -0.005000000    -3.959000000
O     0.398000000    -1.881000000    -2.235000000
H    -0.217000000    -2.578000000    -2.007000000
H     0.197000000    -1.174000000    -1.623000000
O    -0.141000000     5.704000000    -0.180000000
H     0.529000000     6.134000000     0.351000000
H     0.069000000     5.954000000    -1.079000000
O    -3.990000000    -0.166000000     2.487000000
H    -3.264000000     0.414000000     2.717000000
H    -3.717000000    -1.028000000     2.800000000
O     2.720000000    -1.268000000     4.552000000
H     2.198000000    -1.664000000     3.854000000
H     3.008000000    -0.430000000     4.189000000
O    -1.886000000     1.882000000     2.057000000
H    -1.761000000     1.436000000     1.220000000
H    -1.051000000     2.319000000     2.223000000
O     4.197000000    -6.605000000     2.092000000
H     4.700000000    -6.438000000     1.296000000
H     3.973000000    -5.735000000     2.422000000
