144
-2814.77818
O     1.003000000     5.070000000    -5.430000000
H     1.698000000     5.702000000    -5.246000000
H     0.862000000     5.137000000    -6.374000000
O    -2.246000000    -3.661000000    -1.362000000
H    -2.495000000    -4.584000000    -1.314000000
H    -2.156000000    -3.485000000    -2.299000000
O    -1.496000000     3.543000000     2.987000000
H    -1.961000000     3.673000000     3.813000000
H    -1.930000000     2.791000000     2.584000000
O    -2.005000000    -5.389000000    -3.920000000
H    -2.371000000    -6.021000000    -4.538000000
H    -2.237000000    -5.735000000    -3.058000000
O    -0.255000000     5.230000000     1.258000000
H    -0.637000000     4.660000000     1.926000000
H     0.054000000     5.995000000     1.745000000
O     4.265000000     2.691000000     3.285000000
H     4.862000000     2.478000000     2.568000000
H     3.748000000     3.427000000     2.957000000
O     3.318000000     4.279000000    -2.569000000
H     2.698000000     4.609000000    -1.919000000
H     2.814000000     3.647000000    -3.081000000
O    -2.580000000    -3.125000000     6.000000000
H    -2.343000000    -3.369000000     6.895000000
H    -1.742000000    -2.958000000     5.568000000
O     2.719000000     2.424000000    -4.674000000
H     2.494000000     3.038000000    -5.373000000
H     3.553000000     2.044000000    -4.948000000
O     0.005000000     5.234000000    -3.074000000
H    -0.101000000     6.183000000    -3.139000000
H     0.453000000     4.987000000    -3.884000000
O     0.164000000     0.639000000     4.450000000
H     0.587000000    -0.103000000     4.017000000
H     0.034000000     0.347000000     5.352000000
O    -5.237000000     3.691000000    -2.505000000
H    -5.340000000     2.800000000    -2.172000000
H    -4.407000000     3.991000000    -2.134000000
O    -2.284000000     3.364000000    -3.836000000
H    -1.335000000     3.241000000    -3.838000000
H    -2.410000000     4.248000000    -3.492000000
O     2.465000000    -7.285000000     0.628000000
H     1.741000000    -6.957000000     0.095000000
H     2.424000000    -6.766000000     1.432000000
O     3.187000000     1.409000000     5.258000000
H     3.377000000     0.561000000     4.856000000
H     3.582000000     2.049000000     4.666000000
O    -0.612000000    -5.200000000     4.850000000
H    -0.169000000    -4.390000000     5.103000000
H    -1.289000000    -5.321000000     5.515000000
O     5.319000000     2.931000000    -1.421000000
H     4.567000000     3.316000000    -1.869000000
H     6.080000000     3.326000000    -1.846000000
O     0.987000000     3.475000000     5.079000000
H     0.163000000     3.691000000     4.642000000
H     1.072000000     2.527000000     4.974000000
O     1.178000000     0.619000000    -6.012000000
H     1.161000000     1.358000000    -6.620000000
H     1.534000000     0.983000000    -5.202000000
O     2.144000000    -4.516000000     3.902000000
H     1.725000000    -5.302000000     3.551000000
H     1.975000000    -3.841000000     3.245000000
O     3.879000000    -0.960000000     4.076000000
H     4.035000000    -0.432000000     3.294000000
H     3.008000000    -1.333000000     3.944000000
O     1.686000000    -1.549000000     7.410000000
H     1.961000000    -1.932000000     8.243000000
H     1.972000000    -0.637000000     7.460000000
O     2.071000000    -4.549000000     6.822000000
H     1.716000000    -4.520000000     5.933000000
H     3.007000000    -4.382000000     6.712000000
O    -4.008000000    -1.982000000    -4.535000000
H    -4.418000000    -2.064000000    -3.674000000
H    -3.908000000    -1.039000000    -4.664000000
O     4.767000000    -3.252000000     6.788000000
H     4.838000000    -2.603000000     7.487000000
H     4.645000000    -2.734000000     5.992000000
O     0.913000000    -1.896000000    -5.028000000
H     0.414000000    -2.449000000    -5.630000000
H     0.797000000    -1.008000000    -5.367000000
O    -3.823000000     1.216000000    -5.039000000
H    -3.428000000     2.022000000    -4.706000000
H    -4.009000000     1.403000000    -5.960000000
O    -3.905000000    -3.757000000     1.416000000
H    -3.641000000    -3.296000000     0.619000000
H    -3.083000000    -3.929000000     1.876000000
O     4.020000000    -2.603000000     0.844000000
H     3.168000000    -2.964000000     1.090000000
H     3.868000000    -1.660000000     0.772000000
O     1.507000000     5.333000000    -0.830000000
H     1.014000000     5.476000000    -0.022000000
H     0.841000000     5.315000000    -1.517000000
O     4.122000000    -6.146000000     3.440000000
H     3.802000000    -6.993000000     3.752000000
H     3.509000000    -5.509000000     3.806000000
O    -5.138000000     1.194000000    -2.398000000
H    -4.738000000     1.097000000    -3.262000000
H    -5.999000000     0.784000000    -2.484000000
O     2.530000000     4.911000000     3.010000000
H     1.771000000     5.181000000     2.493000000
H     2.182000000     4.766000000     3.890000000
O     0.874000000    -6.703000000     3.212000000
H     0.929000000    -7.584000000     3.582000000
H     0.190000000    -6.271000000     3.724000000
O     1.449000000    -2.738000000    -2.501000000
H     1.338000000    -2.068000000    -1.828000000
H     1.283000000    -2.280000000    -3.325000000
O    -1.379000000    -4.866000000     2.212000000
H    -0.552000000    -4.513000000     1.884000000
H    -1.127000000    -5.414000000     2.956000000
O     5.288000000    -5.000000000     1.307000000
H     4.673000000    -5.281000000     1.984000000
H     5.104000000    -4.068000000     1.188000000
O     3.457000000    -4.455000000    -2.230000000
H     3.012000000    -5.296000000    -2.337000000
H     2.755000000    -3.837000000    -2.030000000
O    -4.967000000     0.630000000     0.421000000
H    -4.737000000     0.914000000    -0.464000000
H    -5.454000000    -0.184000000     0.292000000
O    -1.891000000    -3.200000000    -5.747000000
H    -2.691000000    -2.807000000    -5.398000000
H    -1.946000000    -4.121000000    -5.493000000
O     3.843000000     0.430000000     1.322000000
H     2.960000000     0.769000000     1.176000000
H     4.413000000     1.190000000     1.208000000
O    -3.724000000     0.460000000     4.452000000
H    -4.177000000    -0.290000000     4.066000000
H    -3.148000000     0.776000000     3.755000000
O     0.155000000    -2.517000000     5.444000000
H     0.493000000    -2.256000000     4.588000000
H     0.808000000    -2.198000000     6.067000000
O    -2.545000000     1.361000000     2.062000000
H    -1.902000000     0.755000000     1.694000000
H    -3.261000000     1.366000000     1.426000000
O    -3.183000000     5.078000000    -1.531000000
H    -2.560000000     5.334000000    -0.850000000
H    -3.954000000     5.621000000    -1.367000000
O     0.688000000    -5.030000000    -4.124000000
H    -0.265000000    -4.950000000    -4.088000000
H     1.006000000    -4.128000000    -4.088000000
O    -2.881000000    -6.319000000    -1.350000000
H    -3.048000000    -7.260000000    -1.298000000
H    -3.734000000    -5.916000000    -1.184000000
O     0.046000000    -6.870000000    -0.518000000
H    -0.520000000    -6.103000000    -0.594000000
H    -0.551000000    -7.616000000    -0.574000000
