144
-2825.67651
O    -0.858000000     3.475000000     1.967000000
H    -1.446000000     4.083000000     2.413000000
H    -1.340000000     2.648000000     1.945000000
O     0.592000000     4.908000000    -0.441000000
H    -0.068000000     4.360000000    -0.016000000
H     0.533000000     5.749000000     0.011000000
O     5.386000000     3.279000000     1.406000000
H     4.758000000     2.576000000     1.568000000
H     5.619000000     3.184000000     0.482000000
O     3.789000000     2.196000000    -3.603000000
H     3.310000000     2.938000000    -3.233000000
H     4.254000000     2.563000000    -4.355000000
O    -0.683000000    -3.030000000     5.480000000
H     0.121000000    -2.690000000     5.873000000
H    -0.965000000    -2.342000000     4.878000000
O     0.227000000     5.957000000    -4.586000000
H    -0.036000000     6.854000000    -4.377000000
H     1.144000000     6.033000000    -4.852000000
O     1.415000000     0.685000000     4.246000000
H     1.672000000     0.152000000     3.494000000
H     1.759000000     0.212000000     5.004000000
O    -4.545000000     3.797000000    -2.680000000
H    -4.401000000     2.902000000    -2.374000000
H    -3.679000000     4.204000000    -2.648000000
O    -5.705000000    -2.493000000     1.057000000
H    -5.717000000    -2.672000000     1.997000000
H    -5.804000000    -3.353000000     0.649000000
O     0.466000000     2.566000000    -6.105000000
H    -0.420000000     2.912000000    -5.991000000
H     1.039000000     3.308000000    -5.914000000
O     4.092000000    -6.510000000     0.984000000
H     4.030000000    -6.817000000     0.079000000
H     3.219000000    -6.170000000     1.181000000
O     4.353000000     1.121000000     4.314000000
H     3.400000000     1.112000000     4.225000000
H     4.627000000     0.246000000     4.037000000
O    -1.023000000    -5.232000000     2.209000000
H    -0.326000000    -4.583000000     2.114000000
H    -1.658000000    -4.818000000     2.793000000
O    -5.899000000     2.449000000     2.214000000
H    -5.528000000     1.984000000     1.464000000
H    -6.213000000     1.755000000     2.794000000
O     0.634000000     3.339000000     3.946000000
H     0.119000000     3.453000000     3.148000000
H     0.875000000     2.413000000     3.946000000
O    -6.819000000     2.304000000    -0.771000000
H    -6.284000000     1.897000000    -1.453000000
H    -7.654000000     2.489000000    -1.200000000
O     2.377000000    -4.504000000     3.610000000
H     2.102000000    -5.288000000     3.135000000
H     2.027000000    -3.777000000     3.095000000
O     4.657000000    -1.298000000     3.191000000
H     5.115000000    -1.709000000     2.458000000
H     3.734000000    -1.501000000     3.041000000
O    -3.902000000     6.937000000    -1.383000000
H    -4.713000000     6.563000000    -1.038000000
H    -3.264000000     6.227000000    -1.316000000
O     1.589000000    -2.725000000     7.685000000
H     1.729000000    -1.995000000     7.082000000
H     1.046000000    -2.358000000     8.383000000
O     2.087000000    -5.038000000     6.371000000
H     1.972000000    -4.201000000     6.821000000
H     2.573000000    -4.818000000     5.576000000
O    -2.418000000     3.190000000    -5.743000000
H    -2.544000000     4.057000000    -5.357000000
H    -3.101000000     3.123000000    -6.411000000
O    -2.200000000    -1.890000000    -3.815000000
H    -3.040000000    -2.350000000    -3.798000000
H    -2.405000000    -1.031000000    -4.186000000
O     0.259000000    -0.106000000    -4.780000000
H     0.675000000     0.719000000    -5.030000000
H    -0.674000000     0.039000000    -4.938000000
O    -2.605000000     0.557000000    -5.082000000
H    -2.298000000     1.457000000    -5.186000000
H    -2.677000000     0.224000000    -5.977000000
O    -0.747000000    -5.445000000    -1.546000000
H    -1.232000000    -4.702000000    -1.905000000
H     0.017000000    -5.051000000    -1.125000000
O    -1.624000000    -7.821000000     1.046000000
H    -2.159000000    -7.536000000     0.305000000
H    -1.672000000    -7.096000000     1.669000000
O    -3.948000000    -2.400000000     4.854000000
H    -3.339000000    -3.037000000     4.480000000
H    -3.990000000    -2.626000000     5.783000000
O     5.113000000    -1.863000000     0.401000000
H     4.827000000    -2.339000000    -0.378000000
H     6.048000000    -1.714000000     0.261000000
O     2.619000000     4.284000000    -2.212000000
H     3.217000000     4.815000000    -1.686000000
H     1.780000000     4.342000000    -1.754000000
O     4.905000000    -5.008000000     4.766000000
H     5.257000000    -5.710000000     4.219000000
H     4.031000000    -4.843000000     4.411000000
O    -4.481000000     0.876000000    -2.393000000
H    -4.148000000     0.878000000    -3.291000000
H    -4.905000000     0.023000000    -2.297000000
O     1.411000000    -6.476000000     1.695000000
H     1.795000000    -7.186000000     2.210000000
H     0.553000000    -6.329000000     2.094000000
O    -0.926000000    -5.585000000     6.252000000
H    -0.668000000    -4.711000000     5.960000000
H    -0.152000000    -6.127000000     6.099000000
O     0.774000000    -2.362000000    -3.320000000
H    -0.101000000    -2.589000000    -3.007000000
H     0.676000000    -1.485000000    -3.690000000
O     1.442000000    -4.600000000    -0.224000000
H     1.329000000    -4.016000000     0.526000000
H     1.574000000    -5.465000000     0.163000000
O    -2.807000000    -4.769000000     4.158000000
H    -2.259000000    -4.805000000     4.941000000
H    -3.381000000    -5.532000000     4.231000000
O    -4.629000000     0.374000000     0.731000000
H    -4.926000000     0.316000000    -0.178000000
H    -5.025000000    -0.384000000     1.161000000
O    -2.800000000     1.923000000     4.190000000
H    -3.345000000     1.219000000     4.542000000
H    -2.630000000     1.663000000     3.284000000
O    -3.020000000    -6.695000000    -1.009000000
H    -2.345000000    -6.019000000    -1.070000000
H    -3.162000000    -6.974000000    -1.913000000
O     3.857000000     0.014000000    -1.672000000
H     3.284000000     0.060000000    -0.906000000
H     3.756000000     0.864000000    -2.099000000
O    -1.194000000    -0.794000000     3.870000000
H    -1.522000000    -0.272000000     3.137000000
H    -0.735000000    -0.164000000     4.426000000
O     2.640000000    -1.113000000     5.657000000
H     2.662000000    -1.361000000     4.733000000
H     3.475000000    -1.422000000     6.008000000
O    -2.136000000     0.803000000     1.699000000
H    -1.510000000     0.435000000     1.076000000
H    -2.992000000     0.642000000     1.301000000
O    -1.938000000     4.958000000    -2.449000000
H    -1.448000000     5.432000000    -3.121000000
H    -1.277000000     4.441000000    -1.990000000
O    -6.133000000     5.167000000    -0.394000000
H    -6.056000000     4.355000000    -0.896000000
H    -6.086000000     4.888000000     0.520000000
O    -6.462000000    -1.002000000    -1.344000000
H    -7.274000000    -1.264000000    -1.777000000
H    -6.472000000    -1.470000000    -0.509000000
O     6.610000000    -0.289000000    -2.000000000
H     5.688000000    -0.380000000    -1.763000000
H     6.599000000    -0.092000000    -2.937000000
